228

C         30.94600       -5.66700       -3.50800
N         30.49200       -5.19300       -4.82800
C         30.80600       -5.61800       -6.09300
N         30.18600       -4.93300       -7.02400
C         29.41400       -4.00000       -6.34400
C         28.52900       -2.98300       -6.77800
O         28.18400       -2.63000       -7.92100
N         27.97300       -2.28500       -5.70100
C         28.24100       -2.54000       -4.37700
N         27.62600       -1.77900       -3.46000
N         29.06300       -3.48300       -3.95400
C         29.60100       -4.15800       -4.98200
C         25.69900       -5.68300       -1.27000
N         25.81800       -5.48600       -2.73100
C         26.53300       -6.23100       -3.64400
N         26.42800       -5.79100       -4.86800
C         25.59300       -4.69000       -4.75200
C         25.13100       -3.81800       -5.77300
O         25.38800       -3.86800       -6.99100
N         24.30900       -2.83300       -5.25600
C         23.97300       -2.70400       -3.92100
N         23.15800       -1.66900       -3.64700
N         24.39900       -3.51400       -2.95900
C         25.20600       -4.48900       -3.43400
C         20.23000       -4.78000       -0.97900
N         20.90500       -5.12200       -2.25100
C         21.87000       -6.04600       -2.52400
N         22.23200       -6.06700       -3.78100
C         21.44500       -5.08600       -4.36800
C         21.38900       -4.64700       -5.72000
O         22.06200       -5.07800       -6.66700
N         20.45700       -3.63300       -5.89000
C         19.67600       -3.10500       -4.89000
N         18.83400       -2.12900       -5.25600
N         19.71700       -3.50300       -3.62700
C         20.62100       -4.49200       -3.44200
C         23.42900        2.94400       -2.72900
N         24.31900        2.01900       -3.47100
C         25.18500        1.07300       -2.97600
N         25.81400        0.43500       -3.92300
C         25.33400        0.99400       -5.09800
C         25.65000        0.70700       -6.45200
O         26.45200       -0.13600       -6.86900
N         24.93400        1.50600       -7.33500
C         24.02300        2.46800       -6.97000
N         23.43100        3.14100       -7.97300
N         23.72200        2.74300       -5.71000
C         24.40400        1.98000       -4.83400
C         19.13900        2.46700       -5.90700
N         20.20100        1.44100       -5.97100
C         20.82100        0.75400       -4.96100
N         21.72200       -0.08800       -5.39400
C         21.68900        0.05800       -6.77700
C         22.43500       -0.58600       -7.79500
O         23.31700       -1.45400       -7.66900
N         22.07700       -0.13300       -9.06600
C         21.12400        0.81600       -9.33600
N         20.92700        1.11400      -10.63200
N         20.42400        1.42000       -8.39700
C         20.75200        1.00100       -7.15300
C         16.07600        0.55300      -10.01400
N         17.09400       -0.27900       -9.34000
C         17.34300       -0.45100       -7.99600
N         18.32700       -1.26600       -7.76200
C         18.76200       -1.66000       -9.02900
C         19.79900       -2.53400       -9.43500
O         20.59000       -3.17600       -8.72600
N         19.88900       -2.64500      -10.82600
C         19.07000       -1.98500      -11.71300
N         19.27000       -2.18600      -13.02400
N         18.10100       -1.16800      -11.34500
C         18.00400       -1.05300      -10.00800
C         23.02200        3.73200      -14.20200
N         23.49300        3.19400      -12.90900
C         23.18000        3.55200      -11.62600
N         23.80800        2.83500      -10.72500
C         24.57800        1.95500      -11.46100
C         25.46600        0.94200      -11.03400
O         25.76400        0.60300       -9.87300
N         26.03400        0.29500      -12.12500
C         25.78400        0.58000      -13.44600
N         26.44900       -0.17900      -14.32600
N         24.95500        1.52500      -13.87100
C         24.39700        2.16200      -12.81200
C         22.16100       -1.08400      -16.43600
N         22.30900       -0.97400      -14.96800
C         21.71000       -0.10400      -14.09100
N         22.07500       -0.29000      -12.85100
C         22.97200       -1.35000      -12.91700
C         23.69200       -1.99000      -11.87800
O         23.67500       -1.73500      -10.66300
N         24.49000       -3.01600      -12.36200
C         24.57900       -3.37600      -13.69000
N         25.41000       -4.39800      -13.95300
N         23.91100       -2.78500      -14.66400
C         23.12600       -1.78200      -14.21800
C         21.76100       -6.43700      -16.93000
N         21.55300       -5.76500      -15.62800
C         20.79600       -4.65900      -15.33200
N         20.84500       -4.34200      -14.06900
C         21.68300       -5.29000      -13.49800
C         22.10200       -5.44200      -12.14800
O         21.78500       -4.72500      -11.18800
N         22.95100       -6.52700      -11.98100
C         23.34200       -7.36300      -13.00800
N         24.16900       -8.37000      -12.67700
N         22.95700       -7.22900      -14.26600
C         22.13100       -6.18100      -14.45300
C         30.21300       -5.13000      -15.07300
N         29.46200       -4.11800      -14.29400
C         28.67600       -3.08500      -14.73800
N         28.16400       -2.38400      -13.76200
C         28.64600       -2.99800      -12.61000
C         28.42100       -2.67100      -11.24600
O         27.72800       -1.74100      -10.80900
N         29.08300       -3.52900      -10.38100
C         29.86600       -4.57800      -10.80600
N         30.42500       -5.29800       -9.82700
N         30.08700       -4.89900      -12.07600
C         29.44800       -4.07000      -12.92500
C         28.97400       -8.97600      -11.78900
N         28.07100       -7.81200      -11.75900
C         27.49700       -7.10100      -12.77300
N         26.74500       -6.12000      -12.36200
C         26.82900       -6.18700      -10.97800
C         26.23300       -5.38700       -9.97800
O         25.47800       -4.41800      -10.13300
N         26.58700       -5.80300       -8.69500
C         27.41000       -6.85600       -8.40400
N         27.62800       -7.09700       -7.09700
N         27.96900       -7.60600       -9.34100
C         27.64300       -7.22400      -10.58700
C         26.26100      -11.74700       -7.87100
N         25.66200      -10.56800       -8.54300
C         25.60100      -10.27000       -9.88100
N         24.99300       -9.13700      -10.10900
C         24.63600       -8.66500       -8.84900
C         23.95600       -7.48600       -8.45900
O         23.50800       -6.57400       -9.17200
N         23.80000       -7.39700       -7.07500
C         24.25400       -8.34300       -6.18400
N         24.02600       -8.11200       -4.88400
N         24.88800       -9.44500       -6.53500
C         25.04700       -9.54600       -7.87400
H         30.65900       -4.96100       -2.75700
H         31.45900       -6.39200       -6.29100
H         27.00800       -1.06800       -3.74500
H         27.79300       -1.93100       -2.50200
H         24.71400       -5.41000       -0.95200
H         27.09600       -7.05600       -3.38500
H         22.85200       -1.07800       -4.37300
H         22.86800       -1.50200       -2.72100
H         19.18200       -4.65400       -1.15400
H         22.27600       -6.66900       -1.80800
H         18.80200       -1.83200       -6.19400
H         18.24700       -1.70900       -4.58700
H         22.70600        3.35800       -3.40000
H         25.32200        0.88900       -1.97000
H         23.65900        2.93200       -8.90800
H         22.77000        3.84200       -7.77200
H         18.51100        2.38500       -6.77000
H         20.60000        0.88700       -3.96200
H         21.45400        0.65800      -11.32800
H         20.25600        1.78800      -10.88600
H         15.66600        0.01400      -10.84200
H         16.80400        0.01900       -7.25200
H         18.70100       -1.72900      -13.68500
H         19.98600       -2.79100      -13.32600
H         23.01900        2.95100      -14.93300
H         22.51800        4.30800      -11.39100
H         26.32400       -0.03700      -15.29200
H         27.06300       -0.87900      -14.00700
H         22.08200       -2.11500      -16.71000
H         21.03900        0.62400      -14.38200
H         25.52600       -4.71200      -14.87900
H         25.90300       -4.83300      -13.22000
H         21.67300       -7.49600      -16.80300
H         20.24800       -4.13600      -16.03300
H         24.48100       -8.99800      -13.36800
H         24.46300       -8.47900      -11.74400
H         30.40500       -5.98400      -14.45700
H         28.50700       -2.88300      -15.73600
H         31.00000       -6.06600      -10.04800
H         30.26200       -5.06000       -8.88600
H         28.77100       -9.60700      -10.94900
H         27.64500       -7.32000      -13.77100
H         28.21200       -7.84200       -6.82400
H         27.20400       -6.52900       -6.41400
H         25.66200      -12.01900       -7.02700
H         25.99100      -10.87200      -10.62300
H         23.55400       -7.29400       -4.60500
H         24.33000       -8.76000       -4.20800
H         25.09400        1.37000       -8.31300
H         27.33300       -1.54600       -5.91000
H         28.98600       -3.37800       -9.39700
H         26.68100       -0.44200      -11.93200
H         26.20800       -5.29000       -7.92500
H         23.92900       -2.16400       -5.89500
H         22.55600       -0.53500       -9.84600
H         25.03900       -3.53000      -11.70200
H         23.32900       -6.59500       -6.70700
H         23.30000       -6.71400      -11.06300
H         20.59600       -3.24400      -11.20100
H         20.34500       -3.25800       -6.81000
H         30.49800       -6.61500       -3.29600
H         32.01100       -5.76900       -3.51300
H         25.87800       -6.71100       -1.03300
H         26.41800       -5.07000       -0.76800
H         20.38100       -5.56900       -0.27200
H         20.63900       -3.87000       -0.59100
H         26.30200      -12.56600       -8.55800
H         27.25100      -11.50600       -7.54400
H         28.81800       -9.52600      -12.69400
H         29.98900       -8.64100      -11.74600
H         29.63500       -5.42600      -15.92300
H         31.14100       -4.71100      -15.40100
H         21.02400       -6.09900      -17.62800
H         22.73700       -6.20200      -17.30100
H         21.27800       -0.56400      -16.74500
H         23.01500       -0.65200      -16.91400
H         22.03100        4.11800      -14.08800
H         23.67600        4.51700      -14.52100
H         15.29500        0.79100       -9.32200
H         16.52900        1.45600      -10.36500
H         18.55300        2.31900       -5.02400
H         19.58400        3.44000       -5.88100
H         22.92700        2.40800       -1.95000
H         24.01200        3.73300       -2.30100
