784
Model[1]: Jmol 14.6.4_2016.11.05  2016-11-10 03:30
C     25.10200    1.01320   -0.35070
C     24.39910    2.27630   -0.34790
C     22.86750    0.71340   -0.41410
C     24.14510    0.03760   -0.39400
C     21.60070    0.05670   -0.44530
C     20.31950    0.68820   -0.42910
C     19.05540   -0.00810   -0.41370
C     18.07950    0.95120   -0.36040
C     18.75690    2.22550   -0.34950
C     18.11060    3.49540   -0.31590
C     18.73870    4.77360   -0.34220
C     20.27070    6.33680   -0.40860
C     18.99320    7.01240   -0.39160
C     18.03620    6.03690   -0.34670
C     21.53720    6.99420   -0.43330
C     22.81860    6.36320   -0.41160
C     24.08250    7.05930   -0.38100
C     24.38050    4.82530   -0.34240
C     25.05820    6.09950   -0.33520
C     25.02610    3.55500   -0.32380
C      7.27950    6.02520   -0.25880
C      6.32100    7.00160   -0.31770
C      5.04810    6.32560   -0.37590
C      6.58410    4.76150   -0.28350
C      3.77800    6.97730   -0.40880
C      2.50080    6.34020   -0.41080
C      1.23530    7.03750   -0.41780
C      0.26250    6.07730   -0.40150
C      0.94190    4.80210   -0.38670
C      0.29140    3.53510   -0.38240
C      0.91940    2.25540   -0.39730
C      0.22440    0.99220   -0.44500
C      1.18500    0.01640   -0.46540
C      2.45880    0.69210   -0.42620
C      3.72880    0.03970   -0.40100
C      5.00490    0.67630   -0.34220
C      6.56130    2.21490   -0.26080
C      6.26890   -0.02080   -0.27730
C      7.24020    0.93980   -0.22470
C      7.21080    3.48200   -0.23860
C     21.52930    8.39510   -0.46040
C     21.54630    9.62890   -0.47530
C     21.57220   10.96100   -0.48640
C     21.59690   12.20070   -0.48690
C     21.61150   13.53300   -0.48060
C     21.61170   14.76700   -0.47050
C      3.78230    8.37810   -0.41310
C      3.77180    9.61220   -0.42240
C      3.75580   10.94420   -0.43170
C      3.73750   12.18400   -0.43000
C      3.72480   13.51610   -0.42190
C      3.72170   14.75020   -0.41560
C      8.61640    3.47260   -0.18800
C      9.83820    3.45960   -0.17530
C     11.24240    3.46000   -0.16570
C     11.95120    4.68450   -0.18660
C     11.95510    2.23790   -0.15480
C     13.33280    2.26730   -0.17370
C     13.32860    4.65920   -0.20480
C     14.08650    3.46420   -0.20330
C     15.48380    3.46940   -0.24060
C     16.70470    3.48590   -0.27540
C     26.43170    3.56650   -0.31100
C     27.65280    3.58110   -0.31950
C     29.04980    3.58010   -0.34490
C     29.80970    4.77310   -0.32000
C     29.80020    2.38190   -0.39920
C     31.18740    4.79570   -0.34010
C     31.17730    2.34990   -0.42150
C     31.89280    3.57010   -0.38750
C     33.29700    3.56140   -0.39180
C     34.51880    3.54810   -0.38230
N     23.05020    2.06500   -0.38610
N     20.11140    2.03800   -0.39170
N     20.08790    4.98470   -0.38050
N     23.02670    5.01350   -0.38730
N      5.23460    4.97220   -0.35740
N      2.29470    4.99160   -0.39340
N      2.27120    2.04480   -0.38680
N      5.21020    2.02520   -0.33100
F     14.00660    5.82930   -0.23220
F     14.01510    1.09920   -0.16940
F     29.11510    1.21610   -0.42900
F     29.13330    5.94370   -0.27220
Mg    21.57000    3.52700   -0.38530
Mg     3.75210    3.51030   -0.36380
H     24.20670    8.13830   -0.38940
H     18.85110    8.08910   -0.40870
H     18.93130   -1.08660   -0.43700
H     24.28710   -1.03880   -0.40840
H      6.46200    8.07860   -0.31690
H      1.11100    8.11620   -0.43270
H      1.04480   -1.05980   -0.50240
H      6.39320   -1.09940   -0.27030
H     11.42360    5.63600   -0.19520
H     11.43030    1.28500   -0.13870
H     17.00260    0.81050   -0.33330
H      8.31530    0.80170   -0.16720
H      8.35660    6.14830   -0.20220
H     16.95690    6.15650   -0.32100
H     26.18110    0.89320   -0.32400
H     26.13460    6.24030   -0.30060
H     -0.81400    6.21550   -0.40080
H     -0.85400    0.86890   -0.46380
H     31.71750    5.74550   -0.31610
H     31.69970    1.39650   -0.46110
C     25.10220   17.12430   -0.35070
C     24.39920   18.38740   -0.34790
C     22.86760   16.82450   -0.41420
C     24.14510   16.14880   -0.39400
C     21.60080   16.16780   -0.44530
C     20.31940   16.79940   -0.42910
C     19.05550   16.10300   -0.41370
C     18.07950   17.06230   -0.36040
C     18.75690   18.33650   -0.34940
C     18.11050   19.60660   -0.31590
C     18.73870   20.88470   -0.34220
C     20.27060   22.44790   -0.40860
C     18.99320   23.12350   -0.39160
C     18.03600   22.14810   -0.34670
C     21.53710   23.10520   -0.43340
C     22.81880   22.47430   -0.41170
C     24.08240   23.17050   -0.38100
C     24.38060   20.93640   -0.34240
C     25.05840   22.21060   -0.33520
C     25.02600   19.66600   -0.32380
C      7.27960   22.13630   -0.25880
C      6.32110   23.11270   -0.31780
C      5.04820   22.43660   -0.37590
C      6.58410   20.87260   -0.28350
C      3.77790   23.08850   -0.40880
C      2.50080   22.45130   -0.41080
C      1.23540   23.14860   -0.41780
C      0.26260   22.18840   -0.40150
C      0.94180   20.91320   -0.38660
C      0.29150   19.64620   -0.38240
C      0.91940   18.36650   -0.39730
C      0.22450   17.10320   -0.44500
C      1.18520   16.12750   -0.46540
C      2.45870   16.80320   -0.42620
C      3.72870   16.15070   -0.40100
C      5.00480   16.78740   -0.34220
C      6.56120   18.32610   -0.26080
C      6.26900   16.09030   -0.27720
C      7.24010   17.05090   -0.22470
C      7.21090   19.59320   -0.23870
C     21.52920   24.50610   -0.46040
C     21.54630   25.74010   -0.47530
C     21.57230   27.07210   -0.48650
C     21.59690   28.31190   -0.48680
C     21.61150   29.64410   -0.48050
C     21.61150   30.87820   -0.47050
C      3.78220   24.48920   -0.41310
C      3.77180   25.72330   -0.42230
C      3.75580   27.05520   -0.43170
C      3.73760   28.29510   -0.43000
C      3.72480   29.62720   -0.42200
C      3.72160   30.86130   -0.41560
C      8.61620   19.58370   -0.18800
C      9.83810   19.57080   -0.17520
C     11.24250   19.57110   -0.16580
C     11.95120   20.79560   -0.18660
C     11.95510   18.34890   -0.15480
C     13.33270   18.37840   -0.17370
C     13.32850   20.77030   -0.20490
C     14.08640   19.57530   -0.20320
C     15.48390   19.58050   -0.24060
C     16.70480   19.59710   -0.27530
C     26.43170   19.67760   -0.31100
C     27.65290   19.69210   -0.31940
C     29.04970   19.69110   -0.34490
C     29.80980   20.88420   -0.32000
C     29.80020   18.49300   -0.39920
C     31.18740   20.90690   -0.34020
C     31.17740   18.46110   -0.42150
C     31.89290   19.68120   -0.38750
C     33.29690   19.67250   -0.39170
C     34.51880   19.65910   -0.38240
N     23.05010   18.17610   -0.38610
N     20.11130   18.14910   -0.39170
N     20.08780   21.09570   -0.38050
N     23.02650   21.12450   -0.38720
N      5.23460   21.08330   -0.35750
N      2.29480   21.10260   -0.39340
N      2.27130   18.15590   -0.38680
N      5.21000   18.13630   -0.33100
F     14.00660   21.94040   -0.23230
F     14.01510   17.21020   -0.16940
F     29.11490   17.32720   -0.42900
F     29.13350   22.05480   -0.27210
Mg    21.56980   19.63810   -0.38530
Mg     3.75220   19.62140   -0.36380
H     24.20670   24.24950   -0.38940
H     18.85100   24.20020   -0.40870
H     18.93150   15.02460   -0.43690
H     24.28730   15.07230   -0.40850
H      6.46180   24.18970   -0.31680
H      1.11110   24.22740   -0.43260
H      1.04480   15.05130   -0.50240
H      6.39310   15.01170   -0.27030
H     11.42350   21.74710   -0.19520
H     11.43020   17.39610   -0.13870
H     17.00270   16.92150   -0.33330
H      8.31510   16.91280   -0.16720
H      8.35650   22.25940   -0.20230
H     16.95670   22.26760   -0.32100
H     26.18120   17.00430   -0.32390
H     26.13450   22.35140   -0.30060
H     -0.81390   22.32660   -0.40080
H     -0.85410   16.98000   -0.46380
H     31.71760   21.85660   -0.31610
H     31.69980   17.50760   -0.46110
C     25.10220   33.23540   -0.35070
C     24.39920   34.49850   -0.34790
C     22.86760   32.93560   -0.41420
C     24.14510   32.25990   -0.39400
C     21.60080   32.27890   -0.44530
C     20.31940   32.91050   -0.42910
C     19.05550   32.21410   -0.41370
C     18.07950   33.17340   -0.36040
C     18.75690   34.44760   -0.34940
C     18.11050   35.71770   -0.31590
C     18.73870   36.99570   -0.34220
C     20.27060   38.55900   -0.40860
C     18.99320   39.23450   -0.39160
C     18.03600   38.25920   -0.34670
C     21.53710   39.21630   -0.43340
C     22.81880   38.58540   -0.41170
C     24.08240   39.28160   -0.38100
C     24.38060   37.04750   -0.34240
C     25.05840   38.32170   -0.33520
C     25.02600   35.77710   -0.32380
C      7.27960   38.24740   -0.25880
C      6.32110   39.22380   -0.31780
C      5.04820   38.54770   -0.37590
C      6.58410   36.98370   -0.28350
C      3.77790   39.19960   -0.40880
C      2.50080   38.56240   -0.41080
C      1.23540   39.25970   -0.41780
C      0.26260   38.29950   -0.40150
C      0.94180   37.02430   -0.38660
C      0.29150   35.75730   -0.38240
C      0.91940   34.47760   -0.39730
C      0.22450   33.21430   -0.44500
C      1.18520   32.23860   -0.46540
C      2.45870   32.91430   -0.42620
C      3.72870   32.26180   -0.40100
C      5.00480   32.89850   -0.34220
C      6.56120   34.43710   -0.26080
C      6.26900   32.20140   -0.27720
C      7.24010   33.16200   -0.22470
C      7.21090   35.70430   -0.23870
C     21.52920   40.61720   -0.46040
C     21.54630   41.85120   -0.47530
C     21.57230   43.18320   -0.48650
C     21.59690   44.42300   -0.48680
C     21.61150   45.75520   -0.48050
C     21.61150   46.98930   -0.47050
C      3.78220   40.60030   -0.41310
C      3.77180   41.83440   -0.42230
C      3.75580   43.16630   -0.43170
C      3.73760   44.40620   -0.43000
C      3.72480   45.73830   -0.42200
C      3.72160   46.97240   -0.41560
C      8.61620   35.69480   -0.18800
C      9.83810   35.68190   -0.17520
C     11.24250   35.68220   -0.16580
C     11.95120   36.90670   -0.18660
C     11.95510   34.46000   -0.15480
C     13.33270   34.48950   -0.17370
C     13.32850   36.88140   -0.20490
C     14.08640   35.68640   -0.20320
C     15.48390   35.69160   -0.24060
C     16.70480   35.70820   -0.27530
C     26.43170   35.78870   -0.31100
C     27.65290   35.80320   -0.31940
C     29.04970   35.80220   -0.34490
C     29.80980   36.99530   -0.32000
C     29.80020   34.60410   -0.39920
C     31.18740   37.01800   -0.34020
C     31.17740   34.57220   -0.42150
C     31.89290   35.79220   -0.38750
C     33.29690   35.78360   -0.39170
C     34.51880   35.77020   -0.38240
N     23.05010   34.28720   -0.38610
N     20.11130   34.26020   -0.39170
N     20.08780   37.20680   -0.38050
N     23.02650   37.23560   -0.38720
N      5.23460   37.19440   -0.35750
N      2.29480   37.21370   -0.39340
N      2.27130   34.26700   -0.38680
N      5.21000   34.24740   -0.33100
F     14.00660   38.05150   -0.23230
F     14.01510   33.32130   -0.16940
F     29.11490   33.43830   -0.42900
F     29.13350   38.16590   -0.27210
Mg    21.56980   35.74920   -0.38530
Mg     3.75220   35.73250   -0.36380
H     24.20670   40.36060   -0.38940
H     18.85100   40.31130   -0.40870
H     18.93150   31.13570   -0.43690
H     24.28730   31.18330   -0.40850
H      6.46180   40.30080   -0.31680
H      1.11110   40.33850   -0.43260
H      1.04480   31.16240   -0.50240
H      6.39310   31.12280   -0.27030
H     11.42350   37.85820   -0.19520
H     11.43020   33.50720   -0.13870
H     17.00270   33.03260   -0.33330
H      8.31510   33.02390   -0.16720
H      8.35650   38.37050   -0.20230
H     16.95670   38.37870   -0.32100
H     26.18120   33.11540   -0.32390
H     26.13450   38.46250   -0.30060
H     -0.81390   38.43770   -0.40080
H     -0.85410   33.09110   -0.46380
H     31.71760   37.96770   -0.31610
H     31.69980   33.61870   -0.46110
C     25.10220   49.34650   -0.35070
C     24.39920   50.60960   -0.34790
C     22.86760   49.04670   -0.41420
C     24.14510   48.37100   -0.39400
C     21.60080   48.39000   -0.44530
C     20.31940   49.02160   -0.42910
C     19.05550   48.32520   -0.41370
C     18.07950   49.28450   -0.36040
C     18.75690   50.55870   -0.34940
C     18.11050   51.82880   -0.31590
C     18.73870   53.10680   -0.34220
C     20.27060   54.67010   -0.40860
C     18.99320   55.34560   -0.39160
C     18.03600   54.37030   -0.34670
C     21.53710   55.32740   -0.43340
C     22.81880   54.69650   -0.41170
C     24.08240   55.39270   -0.38100
C     24.38060   53.15860   -0.34240
C     25.05840   54.43280   -0.33520
C     25.02600   51.88820   -0.32380
C      7.27960   54.35850   -0.25880
C      6.32110   55.33480   -0.31780
C      5.04820   54.65880   -0.37590
C      6.58410   53.09480   -0.28350
C      3.77790   55.31070   -0.40880
C      2.50080   54.67350   -0.41080
C      1.23540   55.37080   -0.41780
C      0.26260   54.41060   -0.40150
C      0.94180   53.13540   -0.38660
C      0.29150   51.86840   -0.38240
C      0.91940   50.58870   -0.39730
C      0.22450   49.32540   -0.44500
C      1.18520   48.34970   -0.46540
C      2.45870   49.02540   -0.42620
C      3.72870   48.37290   -0.40100
C      5.00480   49.00960   -0.34220
C      6.56120   50.54820   -0.26080
C      6.26900   48.31250   -0.27720
C      7.24010   49.27300   -0.22470
C      7.21090   51.81540   -0.23870
C      8.61620   51.80590   -0.18800
C      9.83810   51.79300   -0.17520
C     11.24250   51.79330   -0.16580
C     11.95120   53.01780   -0.18660
C     11.95510   50.57110   -0.15480
C     13.33270   50.60060   -0.17370
C     13.32850   52.99250   -0.20490
C     14.08640   51.79750   -0.20320
C     15.48390   51.80260   -0.24060
C     16.70480   51.81920   -0.27530
C     26.43170   51.89980   -0.31100
C     27.65290   51.91430   -0.31940
C     29.04970   51.91330   -0.34490
C     29.80980   53.10640   -0.32000
C     29.80020   50.71520   -0.39920
C     31.18740   53.12910   -0.34020
C     31.17740   50.68330   -0.42150
C     31.89290   51.90330   -0.38750
C     33.29690   51.89460   -0.39170
C     34.51880   51.88130   -0.38240
N     23.05010   50.39820   -0.38610
N     20.11130   50.37130   -0.39170
N     20.08780   53.31790   -0.38050
N     23.02650   53.34670   -0.38720
N      5.23460   53.30550   -0.35750
N      2.29480   53.32480   -0.39340
N      2.27130   50.37810   -0.38680
N      5.21000   50.35850   -0.33100
F     14.00660   54.16260   -0.23230
F     14.01510   49.43240   -0.16940
F     29.11490   49.54940   -0.42900
F     29.13350   54.27700   -0.27210
Mg    21.56980   51.86030   -0.38530
Mg     3.75220   51.84360   -0.36380
H     24.20670   56.47160   -0.38940
H     18.85100   56.42230   -0.40870
H     18.93150   47.24680   -0.43690
H     24.28730   47.29440   -0.40850
H      6.46180   56.41190   -0.31680
H      1.11110   56.44960   -0.43260
H      1.04480   47.27350   -0.50240
H      6.39310   47.23390   -0.27030
H     11.42350   53.96930   -0.19520
H     11.43020   49.61830   -0.13870
H     17.00270   49.14370   -0.33330
H      8.31510   49.13500   -0.16720
H      8.35650   54.48160   -0.20230
H     16.95670   54.48980   -0.32100
H     26.18120   49.22650   -0.32390
H     26.13450   54.57360   -0.30060
H     -0.81390   54.54880   -0.40080
H     -0.85410   49.20220   -0.46380
H     31.71760   54.07880   -0.31610
H     31.69980   49.72980   -0.46110
C     60.73600    1.01320   -0.35070
C     60.03290    2.27630   -0.34790
C     58.50140    0.71340   -0.41420
C     59.77890    0.03770   -0.39400
C     57.23460    0.05670   -0.44530
C     55.95320    0.68830   -0.42910
C     54.68930   -0.00810   -0.41370
C     53.71330    0.95120   -0.36040
C     54.39070    2.22540   -0.34940
C     53.74430    3.49550   -0.31590
C     54.37250    4.77360   -0.34220
C     55.90440    6.33680   -0.40860
C     54.62690    7.01240   -0.39160
C     53.66980    6.03700   -0.34670
C     57.17080    6.99410   -0.43340
C     58.45260    6.36320   -0.41170
C     59.71610    7.05940   -0.38100
C     60.01440    4.82530   -0.34240
C     60.69220    6.09950   -0.33520
C     60.65970    3.55490   -0.32380
C     42.91340    6.02520   -0.25880
C     41.95480    7.00160   -0.31780
C     40.68200    6.32550   -0.37590
C     42.21780    4.76150   -0.28350
C     39.41170    6.97740   -0.40880
C     38.13450    6.34020   -0.41080
C     36.86920    7.03750   -0.41780
C     35.89640    6.07730   -0.40150
C     36.57560    4.80210   -0.38660
C     35.92530    3.53510   -0.38240
C     36.55310    2.25540   -0.39730
C     35.85830    0.99210   -0.44500
C     36.81890    0.01640   -0.46540
C     38.09250    0.69210   -0.42620
C     39.36250    0.03960   -0.40100
C     40.63850    0.67630   -0.34220
C     42.19500    2.21500   -0.26080
C     41.90280   -0.02080   -0.27720
C     42.87380    0.93980   -0.22470
C     42.84460    3.48210   -0.23870
C     57.16300    8.39500   -0.46040
C     57.18010    9.62900   -0.47530
C     57.20610   10.96100   -0.48650
C     57.23070   12.20080   -0.48680
C     57.24530   13.53300   -0.48050
C     57.24530   14.76710   -0.47050
C     39.41590    8.37810   -0.41310
C     39.40560    9.61220   -0.42230
C     39.38960   10.94410   -0.43170
C     39.37140   12.18400   -0.43000
C     39.35860   13.51610   -0.42200
C     39.35540   14.75020   -0.41560
C     44.25000    3.47260   -0.18800
C     45.47190    3.45970   -0.17520
C     46.87620    3.46000   -0.16580
C     47.58500    4.68450   -0.18660
C     47.58890    2.23780   -0.15480
C     48.96650    2.26730   -0.17370
C     48.96220    4.65920   -0.20490
C     49.72020    3.46420   -0.20320
C     51.11770    3.46940   -0.24060
C     52.33850    3.48600   -0.27530
N     58.68380    2.06500   -0.38610
N     55.74510    2.03810   -0.39170
N     55.72160    4.98460   -0.38050
N     58.66030    5.01350   -0.38720
N     40.86840    4.97220   -0.35750
N     37.92860    4.99150   -0.39340
N     37.90510    2.04480   -0.38680
N     40.84380    2.02520   -0.33100
F     49.64030    5.82930   -0.23230
F     49.64890    1.09910   -0.16940
Mg    57.20360    3.52700   -0.38530
Mg    39.38600    3.51030   -0.36380
H     59.84050    8.13840   -0.38940
H     54.48470    8.08910   -0.40870
H     54.56530   -1.08650   -0.43690
H     59.92100   -1.03880   -0.40850
H     42.09560    8.07860   -0.31680
H     36.74480    8.11630   -0.43260
H     36.67860   -1.05980   -0.50240
H     42.02680   -1.09940   -0.27030
H     47.05720    5.63600   -0.19520
H     47.06400    1.28500   -0.13870
H     52.63640    0.81040   -0.33330
H     43.94890    0.80170   -0.16720
H     43.99020    6.14830   -0.20230
H     52.59050    6.15650   -0.32100
H     61.81500    0.89320   -0.32390
H     61.76830    6.24030   -0.30060
H     34.81990    6.21550   -0.40080
H     34.77960    0.86890   -0.46380
C     60.73600   17.12430   -0.35070
C     60.03290   18.38740   -0.34790
C     58.50140   16.82450   -0.41420
C     59.77890   16.14880   -0.39400
C     57.23460   16.16780   -0.44530
C     55.95320   16.79940   -0.42910
C     54.68930   16.10300   -0.41370
C     53.71330   17.06230   -0.36040
C     54.39070   18.33650   -0.34940
C     53.74430   19.60660   -0.31590
C     54.37250   20.88470   -0.34220
C     55.90440   22.44790   -0.40860
C     54.62690   23.12350   -0.39160
C     53.66980   22.14810   -0.34670
C     57.17080   23.10520   -0.43340
C     58.45260   22.47430   -0.41170
C     59.71610   23.17050   -0.38100
C     60.01440   20.93640   -0.34240
C     60.69220   22.21060   -0.33520
C     60.65970   19.66600   -0.32380
C     42.91340   22.13630   -0.25880
C     41.95480   23.11270   -0.31780
C     40.68200   22.43660   -0.37590
C     42.21780   20.87260   -0.28350
C     39.41170   23.08850   -0.40880
C     38.13450   22.45130   -0.41080
C     36.86920   23.14860   -0.41780
C     35.89640   22.18840   -0.40150
C     36.57560   20.91320   -0.38660
C     35.92530   19.64620   -0.38240
C     36.55310   18.36650   -0.39730
C     35.85830   17.10320   -0.44500
C     36.81890   16.12750   -0.46540
C     38.09250   16.80320   -0.42620
C     39.36250   16.15070   -0.40100
C     40.63850   16.78740   -0.34220
C     42.19500   18.32610   -0.26080
C     41.90280   16.09030   -0.27720
C     42.87380   17.05090   -0.22470
C     42.84460   19.59320   -0.23870
C     57.16300   24.50610   -0.46040
C     57.18010   25.74010   -0.47530
C     57.20610   27.07210   -0.48650
C     57.23070   28.31190   -0.48680
C     57.24530   29.64410   -0.48050
C     57.24530   30.87820   -0.47050
C     39.41590   24.48920   -0.41310
C     39.40560   25.72330   -0.42230
C     39.38960   27.05520   -0.43170
C     39.37140   28.29510   -0.43000
C     39.35860   29.62720   -0.42200
C     39.35540   30.86130   -0.41560
C     44.25000   19.58370   -0.18800
C     45.47190   19.57080   -0.17520
C     46.87620   19.57110   -0.16580
C     47.58500   20.79560   -0.18660
C     47.58890   18.34890   -0.15480
C     48.96650   18.37840   -0.17370
C     48.96220   20.77030   -0.20490
C     49.72020   19.57530   -0.20320
C     51.11770   19.58050   -0.24060
C     52.33850   19.59710   -0.27530
N     58.68380   18.17610   -0.38610
N     55.74510   18.14910   -0.39170
N     55.72160   21.09570   -0.38050
N     58.66030   21.12450   -0.38720
N     40.86840   21.08330   -0.35750
N     37.92860   21.10260   -0.39340
N     37.90510   18.15590   -0.38680
N     40.84380   18.13630   -0.33100
F     49.64030   21.94040   -0.23230
F     49.64890   17.21020   -0.16940
Mg    57.20360   19.63810   -0.38530
Mg    39.38600   19.62140   -0.36380
H     59.84050   24.24950   -0.38940
H     54.48470   24.20020   -0.40870
H     54.56530   15.02460   -0.43690
H     59.92100   15.07230   -0.40850
H     42.09560   24.18970   -0.31680
H     36.74480   24.22740   -0.43260
H     36.67860   15.05130   -0.50240
H     42.02680   15.01170   -0.27030
H     47.05720   21.74710   -0.19520
H     47.06400   17.39610   -0.13870
H     52.63640   16.92150   -0.33330
H     43.94890   16.91280   -0.16720
H     43.99020   22.25940   -0.20230
H     52.59050   22.26760   -0.32100
H     61.81500   17.00430   -0.32390
H     61.76830   22.35140   -0.30060
H     34.81990   22.32660   -0.40080
H     34.77960   16.98000   -0.46380
C     60.73600   33.23540   -0.35070
C     60.03290   34.49850   -0.34790
C     58.50140   32.93560   -0.41420
C     59.77890   32.25990   -0.39400
C     57.23460   32.27890   -0.44530
C     55.95320   32.91050   -0.42910
C     54.68930   32.21410   -0.41370
C     53.71330   33.17340   -0.36040
C     54.39070   34.44760   -0.34940
C     53.74430   35.71770   -0.31590
C     54.37250   36.99570   -0.34220
C     55.90440   38.55900   -0.40860
C     54.62690   39.23450   -0.39160
C     53.66980   38.25920   -0.34670
C     57.17080   39.21630   -0.43340
C     58.45260   38.58540   -0.41170
C     59.71610   39.28160   -0.38100
C     60.01440   37.04750   -0.34240
C     60.69220   38.32170   -0.33520
C     60.65970   35.77710   -0.32380
C     42.91340   38.24740   -0.25880
C     41.95480   39.22380   -0.31780
C     40.68200   38.54770   -0.37590
C     42.21780   36.98370   -0.28350
C     39.41170   39.19960   -0.40880
C     38.13450   38.56240   -0.41080
C     36.86920   39.25970   -0.41780
C     35.89640   38.29950   -0.40150
C     36.57560   37.02430   -0.38660
C     35.92530   35.75730   -0.38240
C     36.55310   34.47760   -0.39730
C     35.85830   33.21430   -0.44500
C     36.81890   32.23860   -0.46540
C     38.09250   32.91430   -0.42620
C     39.36250   32.26180   -0.40100
C     40.63850   32.89850   -0.34220
C     42.19500   34.43710   -0.26080
C     41.90280   32.20140   -0.27720
C     42.87380   33.16200   -0.22470
C     42.84460   35.70430   -0.23870
C     57.16300   40.61720   -0.46040
C     57.18010   41.85120   -0.47530
C     57.20610   43.18320   -0.48650
C     57.23070   44.42300   -0.48680
C     57.24530   45.75520   -0.48050
C     57.24530   46.98930   -0.47050
C     39.41590   40.60030   -0.41310
C     39.40560   41.83440   -0.42230
C     39.38960   43.16630   -0.43170
C     39.37140   44.40620   -0.43000
C     39.35860   45.73830   -0.42200
C     39.35540   46.97240   -0.41560
C     44.25000   35.69480   -0.18800
C     45.47190   35.68190   -0.17520
C     46.87620   35.68220   -0.16580
C     47.58500   36.90670   -0.18660
C     47.58890   34.46000   -0.15480
C     48.96650   34.48950   -0.17370
C     48.96220   36.88140   -0.20490
C     49.72020   35.68640   -0.20320
C     51.11770   35.69160   -0.24060
C     52.33850   35.70820   -0.27530
N     58.68380   34.28720   -0.38610
N     55.74510   34.26020   -0.39170
N     55.72160   37.20680   -0.38050
N     58.66030   37.23560   -0.38720
N     40.86840   37.19440   -0.35750
N     37.92860   37.21370   -0.39340
N     37.90510   34.26700   -0.38680
N     40.84380   34.24740   -0.33100
F     49.64030   38.05150   -0.23230
F     49.64890   33.32130   -0.16940
Mg    57.20360   35.74920   -0.38530
Mg    39.38600   35.73250   -0.36380
H     59.84050   40.36060   -0.38940
H     54.48470   40.31130   -0.40870
H     54.56530   31.13570   -0.43690
H     59.92100   31.18330   -0.40850
H     42.09560   40.30080   -0.31680
H     36.74480   40.33850   -0.43260
H     36.67860   31.16240   -0.50240
H     42.02680   31.12280   -0.27030
H     47.05720   37.85820   -0.19520
H     47.06400   33.50720   -0.13870
H     52.63640   33.03260   -0.33330
H     43.94890   33.02390   -0.16720
H     43.99020   38.37050   -0.20230
H     52.59050   38.37870   -0.32100
H     61.81500   33.11540   -0.32390
H     61.76830   38.46250   -0.30060
H     34.81990   38.43770   -0.40080
H     34.77960   33.09110   -0.46380
C     60.73600   49.34650   -0.35070
C     60.03290   50.60960   -0.34790
C     58.50140   49.04670   -0.41420
C     59.77890   48.37100   -0.39400
C     57.23460   48.39000   -0.44530
C     55.95320   49.02160   -0.42910
C     54.68930   48.32520   -0.41370
C     53.71330   49.28450   -0.36040
C     54.39070   50.55870   -0.34940
C     53.74430   51.82880   -0.31590
C     54.37250   53.10680   -0.34220
C     55.90440   54.67010   -0.40860
C     54.62690   55.34560   -0.39160
C     53.66980   54.37030   -0.34670
C     57.17080   55.32740   -0.43340
C     58.45260   54.69650   -0.41170
C     59.71610   55.39270   -0.38100
C     60.01440   53.15860   -0.34240
C     60.69220   54.43280   -0.33520
C     60.65970   51.88820   -0.32380
C     42.91340   54.35850   -0.25880
C     41.95480   55.33480   -0.31780
C     40.68200   54.65880   -0.37590
C     42.21780   53.09480   -0.28350
C     39.41170   55.31070   -0.40880
C     38.13450   54.67350   -0.41080
C     36.86920   55.37080   -0.41780
C     35.89640   54.41060   -0.40150
C     36.57560   53.13540   -0.38660
C     35.92530   51.86840   -0.38240
C     36.55310   50.58870   -0.39730
C     35.85830   49.32540   -0.44500
C     36.81890   48.34970   -0.46540
C     38.09250   49.02540   -0.42620
C     39.36250   48.37290   -0.40100
C     40.63850   49.00960   -0.34220
C     42.19500   50.54820   -0.26080
C     41.90280   48.31250   -0.27720
C     42.87380   49.27300   -0.22470
C     42.84460   51.81540   -0.23870
C     44.25000   51.80590   -0.18800
C     45.47190   51.79300   -0.17520
C     46.87620   51.79330   -0.16580
C     47.58500   53.01780   -0.18660
C     47.58890   50.57110   -0.15480
C     48.96650   50.60060   -0.17370
C     48.96220   52.99250   -0.20490
C     49.72020   51.79750   -0.20320
C     51.11770   51.80260   -0.24060
C     52.33850   51.81920   -0.27530
N     58.68380   50.39820   -0.38610
N     55.74510   50.37130   -0.39170
N     55.72160   53.31790   -0.38050
N     58.66030   53.34670   -0.38720
N     40.86840   53.30550   -0.35750
N     37.92860   53.32480   -0.39340
N     37.90510   50.37810   -0.38680
N     40.84380   50.35850   -0.33100
F     49.64030   54.16260   -0.23230
F     49.64890   49.43240   -0.16940
Mg    57.20360   51.86030   -0.38530
Mg    39.38600   51.84360   -0.36380
H     59.84050   56.47160   -0.38940
H     54.48470   56.42230   -0.40870
H     54.56530   47.24680   -0.43690
H     59.92100   47.29440   -0.40850
H     42.09560   56.41190   -0.31680
H     36.74480   56.44960   -0.43260
H     36.67860   47.27350   -0.50240
H     42.02680   47.23390   -0.27030
H     47.05720   53.96930   -0.19520
H     47.06400   49.61830   -0.13870
H     52.63640   49.14370   -0.33330
H     43.94890   49.13500   -0.16720
H     43.99020   54.48160   -0.20230
H     52.59050   54.48980   -0.32100
H     61.81500   49.22650   -0.32390
H     61.76830   54.57360   -0.30060
H     34.81990   54.54880   -0.40080
H     34.77960   49.20220   -0.46380
H      3.78424   56.38037   -0.43443
H     21.52567   56.39664   -0.47200
H     39.41806   56.38037   -0.43443
H     57.15934   56.39664   -0.47200
H     61.72907   51.89573   -0.28790
H     61.72907   35.78463   -0.28790
H     61.72907   19.67353   -0.28790
H     -0.77834   51.87800   -0.36642
H     -0.77834   35.76690   -0.36642
H     -0.77834   19.65580   -0.36642
H     -0.77844    3.54474   -0.36634
H      3.72322   -1.02992   -0.42890
H     21.61174   -1.01252   -0.48465
H     39.35693   -1.03002   -0.42890
H     57.24564   -1.01252   -0.48456
H     61.72907    3.56243   -0.28790
