171
Amylose-chain containing 8 a-D-Glucose units
H     -11.052557     3.258275     5.732226
H     -14.026123     4.199415     1.980782
H      -7.751803     4.169551     5.246709
O     -10.741203     2.723710     4.836080
H     -11.018441     4.578833     3.989634
O     -13.238606     3.808772     2.625013
H     -12.618612     1.982890     3.177248
H     -12.920838     2.129338     1.756584
O      -8.628897     4.712454     4.892565
H      -8.429727     3.060873     3.645903
H      -6.977845     5.980800     2.067298
C     -10.480111     3.651849     3.794006
C     -12.409863     2.675971     2.415549
H     -10.415598     2.132672     2.308036
C      -9.006770     3.982751     3.718838
O      -7.310725     4.976945     2.330123
H      -9.167179     5.823747     2.629005
C     -10.940597     3.032193     2.474974
C      -8.715912     4.840934     2.498439
O     -10.696849     3.993084     1.433644
H      -9.139708     4.924678     0.391872
C      -9.300407     4.239537     1.223929
H     -11.940259     1.109600    -1.840055
H      -6.100569     4.808220    -0.337748
O      -8.696773     3.026229     0.792947
H      -9.258100     3.463926    -1.138295
O     -11.151118     1.515768    -1.206603
H     -10.236590     0.938554     0.481699
H     -10.432419    -0.118376    -0.507196
O      -7.032203     4.699929    -0.893409
H      -6.401240     2.770746    -0.445494
H      -5.416660     3.637570    -3.822900
C      -8.531838     2.849278    -0.605806
C     -10.100213     0.821577    -0.553247
H      -8.036682     0.791608    -0.397911
C      -7.152589     3.280879    -1.048119
O      -5.567997     3.157409    -2.856140
H      -7.574489     3.546658    -3.134399
C      -8.741294     1.370216    -0.929236
C      -6.928587     2.930138    -2.509781
O      -8.599586     1.210967    -2.350397
H      -7.170756     1.287227    -3.877184
C      -7.266473     1.472093    -2.807499
H      -8.952935    -3.305605    -2.115520
H      -4.114859     1.246924    -4.544237
O      -6.399572     0.514998    -2.212177
H      -6.860815    -0.802895    -3.723979
O      -8.320107    -2.419090    -2.096620
H      -7.463311    -1.302953    -0.666410
H      -7.358593    -2.747802    -0.471068
O      -4.953556     0.574717    -4.726445
H      -3.997073    -0.144337    -3.027279
H      -2.905823    -2.006276    -5.937554
C      -6.079244    -0.632506    -2.984726
C      -7.214992    -2.141171    -1.251078
H      -5.208773    -1.640105    -1.326947
C      -4.776943    -0.438677    -3.728860
O      -3.045159    -1.590712    -4.939263
H      -5.055727    -1.953881    -5.222145
C      -5.962899    -1.828998    -2.040543
C      -4.359456    -1.728607    -4.414346
O      -5.666302    -2.985983    -2.838781
H      -4.149576    -3.830329    -4.007711
C      -4.375409    -2.916586    -3.457284
H      -5.142252    -5.646966     0.797707
H      -1.098675    -3.772649    -4.695800
O      -3.393747    -2.881445    -2.428968
H      -3.449886    -4.936676    -2.341875
O      -4.700060    -4.966000     0.070653
H      -4.211803    -3.021114     0.047811
H      -3.842440    -3.736896     1.266156
O      -1.768808    -4.487373    -4.217511
H      -0.845383    -3.443453    -2.675913
H       0.846855    -6.600871    -3.212539
C      -2.785174    -4.114030    -2.075836
C      -3.751363    -3.934242     0.292324
H      -1.885681    -3.295734    -0.332093
C      -1.485847    -4.312218    -2.823583
O       0.540128    -5.608785    -2.881152
H      -1.325640    -6.438596    -2.590539
C      -2.520589    -4.103093    -0.570891
C      -0.762913    -5.547240    -2.313960
O      -1.931697    -5.367550    -0.222538
H      -0.180117    -6.486176    -0.468368
C      -0.629369    -5.547101    -0.794530
H      -1.219924    -4.116935     4.079753
H       2.847866    -6.385272    -1.244039
O       0.229787    -4.548661    -0.260601
H       0.573497    -5.754490     1.371328
O      -0.857399    -4.169356     3.053069
H      -0.762128    -2.897929     1.503883
H      -0.368597    -2.333506     2.792808
O       2.292294    -6.588284    -0.328571
H       2.850448    -4.588339    -0.232873
H       5.172838    -6.609965     1.676497
C       1.035096    -4.917780     0.848554
C      -0.155272    -3.182742     2.314210
H       1.597565    -2.906138     1.249189
C       2.410167    -5.359383     0.399031
O       4.648724    -5.806458     1.158695
H       2.964593    -6.455634     2.157417
C       1.157324    -3.707321     1.774545
C       3.314153    -5.587049     1.598076
O       1.950316    -4.102935     2.906685
H       3.902944    -4.638186     3.435725
C       3.308129    -4.398398     2.554675
H       2.015290     0.094193     4.625167
H       6.908546    -4.583464     2.574338
O       3.903581    -3.210381     2.049451
H       4.329713    -2.635495     3.978252
O       2.470241    -0.653389     3.975302
H       2.451612    -1.039332     2.007312
H       2.608905     0.369885     2.359977
O       6.325050    -4.114878     3.366501
H       6.467074    -2.705675     1.845081
H       8.962710    -2.035059     4.385025
C       4.663644    -2.431696     2.960498
C       3.028246    -0.476106     2.682998
H       4.779209    -0.781947     1.624730
C       6.131785    -2.780573     2.880084
O       8.337746    -2.039558     3.491460
H       6.732104    -2.000163     4.784900
C       4.460549    -0.956603     2.614781
C       6.952927    -1.827987     3.731995
O       5.212480    -0.180182     3.562279
H       7.176269     0.275052     4.121470
C       6.626935    -0.367293     3.433299
H       4.294544     3.724649     1.443318
H      10.177497     0.233024     3.240973
O       7.019198     0.091143     2.145459
H       7.149250     2.002981     2.895258
O       4.943789     2.857415     1.556898
H       5.177105     1.110167     0.598589
H       5.021556     2.276320    -0.268053
O       9.443849     1.013446     3.443786
H       9.441116     0.743025     1.383367
H      11.518006     3.580621     2.251102
C       7.526024     1.413998     2.059542
C       5.568634     2.084873     0.544118
H       7.433355     1.426649    -0.065085
C       9.035613     1.422376     2.133134
O      10.989497     2.773144     1.743758
H       9.297966     3.476300     2.693685
C       7.068364     2.015277     0.730332
C       9.573121     2.819111     1.869031
O       7.564148     3.363116     0.668907
H       9.342550     4.451238     0.488311
C       8.994815     3.423971     0.593893
H       6.087478     3.960952    -3.578224
H      12.359172     4.333534    -0.328380
O       9.401758     2.796105    -0.614826
H       9.085548     4.568473    -1.611394
O       6.883075     3.641206    -2.905456
H       7.540399     1.880675    -2.203723
H       7.236315     1.903038    -3.632893
O      11.471039     4.826103    -0.725532
H      11.705345     3.082406    -1.831923
H      13.097386     5.891178    -3.647942
C       9.643721     3.639641    -1.730779
C       7.735825     2.512486    -3.021086
H       9.740368     2.004377    -3.085879
C      11.108537     3.994492    -1.834508
O      12.784097     4.905445    -3.302698
H      10.910326     5.735911    -3.071517
C       9.197063     2.903982    -2.993303
C      11.382137     4.753911    -3.121788
O       9.420628     3.779631    -4.110379
H      10.957788     4.655168    -5.228345
C      10.811999     4.037442    -4.341479
O      11.440671     2.805974    -4.671603
H      11.347119     2.114340    -3.835065
