45
Amylose-chain containing 2 a-D-Glucose units
H      -5.277266     0.157680     1.368922
H      -3.895428    -2.744240    -2.301303
H      -3.409302     3.045431     1.733255
O      -4.251616    -0.184297     1.498821
H      -4.121538     0.391133    -0.472670
O      -3.938839    -2.163856    -1.379843
H      -3.657555    -2.551907     0.567847
H      -2.666881    -3.140000    -0.328695
O      -3.687375     2.572557     0.790640
H      -2.168451     1.404399     1.596760
H      -0.800042     3.676925    -0.870831
C      -3.470369     0.217574     0.383616
C      -3.080816    -2.236184    -0.251795
H      -1.852153    -1.052707     0.920210
C      -2.736345     1.507487     0.672084
O      -0.953882     2.936036    -0.086594
H      -2.341766     2.088837    -1.355001
C      -2.466373    -0.893379     0.077608
C      -1.775820     1.837306    -0.458872
O      -1.702165    -0.486007    -1.070053
H      -0.263475     0.908416    -1.673045
C      -0.875999     0.655695    -0.807882
H       1.051242    -4.081293    -0.804866
H       1.912838     2.939242    -0.713003
O       0.070080     0.297185     0.191439
H       1.284890    -0.482286    -1.275880
O       0.832438    -3.052251    -0.518204
H       0.030991    -2.157006     1.086824
H       0.997258    -3.210821     1.385428
O       1.925508     1.993899    -1.255769
H       2.322889     1.523489     0.729499
H       5.423050     1.719400    -1.135835
C       1.355086    -0.110042    -0.253481
C       0.985818    -2.439464     0.752286
H       1.912390    -0.831259     1.667889
C       2.322403     1.051227    -0.252787
O       4.655715     1.632482    -0.366431
H       3.776586     0.233046    -1.600798
C       1.860603    -1.206985     0.683146
C       3.729978     0.571348    -0.565997
O       3.148278    -1.628888     0.204574
H       5.122791    -0.966592     0.001813
C       4.144035    -0.603896     0.314944
O       4.313150    -0.298432     1.693366
H       3.375403     0.078563     2.100713
