20
ALKANE	      0.0000000
  H        0.00000        0.00000        0.00000
  C        1.10000        0.00000        0.00000
  C        1.61406        1.45167        0.00000
  C        3.15406        1.45167        0.00000
  C        3.66813        2.90334        0.00000
  C        5.20813        2.90334        0.00000
  C        5.72219        4.35500       -0.00000
  H        1.46615       -0.51919       -0.89799
  H        1.46615       -0.51919        0.89799
  H        1.24792        1.97086       -0.89799
  H        1.24792        1.97086        0.89799
  H        3.52125        0.93322        0.89799
  H        3.52125        0.93322       -0.89799
  H        3.30198        3.42253       -0.89799
  H        3.30198        3.42253        0.89799
  H        5.57531        2.38488        0.89799
  H        5.57531        2.38488       -0.89799
  H        6.82219        4.35500        0.00000
  H        5.35604        4.87419       -0.89799
  H        5.35604        4.87419        0.89799
