92
ALKANE	      0.0000000
  H        0.00000        0.00000        0.00000
  C        1.10000        0.00000        0.00000
  C        1.61406        1.45167        0.00000
  C        3.15406        1.45167        0.00000
  C        3.66813        2.90334        0.00000
  C        5.20813        2.90334        0.00000
  C        5.72219        4.35500       -0.00000
  C        7.26219        4.35500        0.00000
  C        7.77625        5.80667       -0.00000
  C        9.31625        5.80667        0.00000
  C        9.83031        7.25834       -0.00000
  C       11.37031        7.25834        0.00000
  C       11.88438        8.71001       -0.00000
  C       13.42438        8.71001        0.00000
  C       13.93844       10.16168       -0.00000
  C       15.47844       10.16168        0.00000
  C       15.99250       11.61334       -0.00000
  C       17.53250       11.61334        0.00000
  C       18.04656       13.06501       -0.00000
  C       19.58656       13.06501        0.00000
  C       20.10063       14.51668       -0.00000
  C       21.64063       14.51668        0.00000
  C       22.15469       15.96835       -0.00000
  C       23.69469       15.96835        0.00000
  C       24.20875       17.42001       -0.00000
  C       25.74875       17.42001        0.00000
  C       26.26281       18.87168       -0.00000
  C       27.80281       18.87168        0.00000
  C       28.31688       20.32335       -0.00000
  C       29.85688       20.32335        0.00000
  C       30.37094       21.77502        0.00000
  H        1.46615       -0.51919       -0.89799
  H        1.46615       -0.51919        0.89799
  H        1.24792        1.97086       -0.89799
  H        1.24792        1.97086        0.89799
  H        3.52125        0.93322        0.89799
  H        3.52125        0.93322       -0.89799
  H        3.30198        3.42253       -0.89799
  H        3.30198        3.42253        0.89799
  H        5.57531        2.38488        0.89799
  H        5.57531        2.38488       -0.89799
  H        5.35604        4.87419       -0.89799
  H        5.35604        4.87419        0.89799
  H        7.62938        3.83655        0.89799
  H        7.62938        3.83655       -0.89799
  H        7.41010        6.32586       -0.89799
  H        7.41010        6.32586        0.89799
  H        9.68344        5.28822        0.89799
  H        9.68344        5.28822       -0.89799
  H        9.46417        7.77753       -0.89799
  H        9.46417        7.77753        0.89799
  H       11.73750        6.73989        0.89799
  H       11.73750        6.73989       -0.89799
  H       11.51823        9.22920       -0.89799
  H       11.51823        9.22920        0.89799
  H       13.79156        8.19155        0.89799
  H       13.79156        8.19155       -0.89799
  H       13.57229       10.68086       -0.89799
  H       13.57229       10.68086        0.89799
  H       15.84563        9.64322        0.89799
  H       15.84563        9.64322       -0.89799
  H       15.62636       12.13253       -0.89799
  H       15.62636       12.13253        0.89799
  H       17.89969       11.09489        0.89799
  H       17.89969       11.09489       -0.89799
  H       17.68042       13.58420       -0.89799
  H       17.68042       13.58420        0.89799
  H       19.95375       12.54656        0.89799
  H       19.95375       12.54656       -0.89799
  H       19.73448       15.03587       -0.89799
  H       19.73448       15.03587        0.89799
  H       22.00781       13.99823        0.89799
  H       22.00781       13.99823       -0.89799
  H       21.78854       16.48754       -0.89799
  H       21.78854       16.48754        0.89799
  H       24.06188       15.44989        0.89799
  H       24.06188       15.44989       -0.89799
  H       23.84261       17.93920       -0.89799
  H       23.84261       17.93920        0.89799
  H       26.11594       16.90156        0.89799
  H       26.11594       16.90156       -0.89799
  H       25.89667       19.39087       -0.89799
  H       25.89667       19.39087        0.89799
  H       28.17000       18.35323        0.89799
  H       28.17000       18.35323       -0.89799
  H       27.95073       20.84254       -0.89799
  H       27.95073       20.84254        0.89799
  H       30.22406       19.80490        0.89799
  H       30.22406       19.80490       -0.89799
  H       31.47094       21.77502        0.00000
  H       30.00479       22.29421       -0.89799
  H       30.00479       22.29421        0.89799
