128
Generated with Spartan
  H           4.92237603       4.26781178      -4.12878628
  H           6.03118134       7.26018915      -6.10939225
  H          -3.87943044       7.11264580       0.01409293
  H          -5.63324931      -8.57954122      -1.08827165
  H           6.24928335       0.83780171      -3.81478626
  C           4.68242369       2.25257658      -4.08288629
  H           1.75821522       0.81083519      -4.42418628
  C           4.25857602       3.52242822      -4.18998627
  O          -0.22318610      -9.08901857       0.18731373
  C          -1.03248604      -5.56301807      -1.09188628
  C          -0.96708604      -6.81681799      -1.95748628
  C          -2.07118603      -7.58901809      -1.23538628
  C          -1.84478613      -7.29091810       0.24661367
  C          -1.13998600      -8.37541841       0.89201372
  O          -1.10488602      -6.03621791       0.24391370
  H          -1.92348596      -4.98991798      -1.34878627
  H          -0.01768603      -7.33761810      -1.83238627
  H          -1.27798601      -6.61011814      -2.98148627
  H          -2.07188602      -8.66751836      -1.39328627
  H          -2.79828616      -7.05671810       0.72011368
  H          -1.87788602      -9.06951784       1.44021361
  H          -0.59208604      -7.92401813       1.86511367
  O          -3.32828017      -7.05183433      -1.62628628
  H           3.88371400       5.16748168       0.43001371
  N           0.72311395      -0.73361813      -1.09158628
  C          -0.49848600      -1.24631809      -0.95408628
  N          -0.87678607      -2.50561808      -0.96468628
  C           0.18151394      -3.32251810      -1.14488628
  C           1.48501394      -2.94681810      -1.29988628
  C           1.76191393      -1.57061814      -1.27008628
  N           2.99431399      -1.06051813      -1.40918628
  N           2.29591397      -4.06161808      -1.46158628
  C           1.47091393      -5.06051801      -1.40018628
  N           0.17001394      -4.69091819      -1.20948628
  H          -1.23188611      -0.57891815      -0.82438628
  H           3.13191394      -0.07041814      -1.37958629
  H           3.77571396      -1.67011808      -1.54248629
  H           1.76061396      -6.01381801      -1.48488627
  P           1.23731393       8.99848200      -2.95628626
  O           2.21571390       8.93698145      -1.84758628
  O           1.18573572      10.43633825      -3.81196444
  H           4.60271386       3.79118182      -0.43978627
  O          -0.22318610       8.65038229      -2.40328629
  C          -1.03248604       5.12438179      -1.12408628
  C          -0.96708604       6.37818171      -0.25848628
  C          -2.07118603       7.15038182      -0.98058629
  C          -1.84478613       6.85228182      -2.46258623
  C          -1.13998600       7.93678213      -3.10798628
  O          -1.10488602       5.59758164      -2.45988626
  H          -1.92348596       4.55128170      -0.86718629
  H          -0.01768603       6.89898182      -0.38358630
  H          -1.27798601       6.17148186       0.76551371
  H          -2.07188602       8.22888209      -0.82268630
  H          -2.79828616       6.61808182      -2.93608625
  H          -1.87788602       8.63088156      -3.65618617
  H          -0.59208604       7.48538185      -4.08108623
  O          -3.32828017       6.61319806      -0.58968628
  H           4.11781386       5.25268198      -1.33228628
  N           0.17001394       4.25228192      -1.00648628
  C          -0.02968605       2.89608194      -1.09858628
  O          -1.12928601       2.39818193      -1.26878628
  N           1.10711394       2.12008192      -0.98508628
  C           2.39481393       2.57738186      -0.79188628
  O           3.33511404       1.78448178      -0.70528627
  C           2.50351397       4.01478173      -0.70788629
  C           1.41421393       4.79298188      -0.81498627
  C           3.87021402       4.59628178      -0.49818630
  H           0.98521394       1.12958182      -1.04918628
  H           1.51311395       5.78618170      -0.75378628
  P          -4.24878209      -7.88598543      -2.63468630
  O          -3.42109078      -8.41131950      -3.74338628
  O          -5.13566044      -9.01891864      -1.77900812
  H          -1.81325807      -5.42406537      -4.85988627
  O          -5.22574356      -6.74590647      -3.18768627
  C          -3.80794988      -3.41761757      -4.46688628
  C          -4.49200527      -4.47040416      -5.33248628
  C          -5.83912875      -4.44615348      -4.61038628
  C          -5.48074861      -4.33806004      -3.12838633
  C          -5.54800662      -5.62971035      -2.48298628
  O          -4.14466258      -3.75788865      -3.13108630
  H          -4.19192417      -2.43025325      -4.72378627
  H          -4.03004315      -5.44978363      -5.20738627
  H          -4.62203350      -4.12043806      -6.35648627
  H          -6.47362162      -5.31826708      -4.76828627
  H          -6.11448703      -3.58813501      -2.65488632
  H          -6.55296168      -5.75752183      -1.93478639
  H          -4.83941981      -5.58656737      -1.50988633
  O          -6.54039059      -3.27266129      -5.00128628
  H           6.47656900       2.37386920      -2.94498629
  N           0.45101041      -0.54246672      -4.46658628
  C          -0.83864219      -0.23921127      -4.32908628
  N          -1.88489134      -1.03564716      -4.33968628
  C          -1.50887042      -2.31858630      -4.51988628
  C          -0.23348585      -2.78081669      -4.67488628
  C           0.79944099      -1.83020527      -4.64508628
  N           2.09630284      -2.14191228      -4.78418628
  N          -0.23271693      -4.15934390      -4.83658628
  C          -1.48729464      -4.48254806      -4.77518628
  N          -2.32249951      -3.41888570      -4.58448628
  H          -1.03968749       0.73180839      -4.19938628
  H           2.78958971      -1.42178377      -4.75458629
  H           2.37015484      -3.09438437      -4.91748629
  H           0.65128101      -9.29744153       0.51841969
  C           6.12990442       1.91969387      -3.87318630
  H          -7.27984855      -3.35276500      -5.60506548
  H           0.52491830      10.37334984      -4.50270091
  O           5.20121465       7.60557030      -5.77828629
  C           2.47394615       5.22867055      -4.49908628
  C           3.26382096       6.20457483      -3.63348628
  C           2.82447314       7.47827153      -4.35558629
  C           2.83241573       7.10402905      -5.83758623
  C           4.04006430       7.56713711      -6.48298628
  O           2.69351323       5.65405290      -5.83488626
  H           1.41625229       5.28873945      -4.24218629
  H           4.33802033       6.06786765      -3.75858630
  H           2.89080248       6.22009356      -2.60948629
  H           3.45783338       8.35120803      -4.19768629
  H           1.92335869       7.47501052      -6.31108625
  H           3.85107205       8.56240209      -7.03118617
  H           4.21799825       6.87989909      -7.45608623
  O           1.49171392       7.78258214      -3.96468628
  H           6.71603926       2.30519725      -4.70728628
  N           2.93418162       3.81631517      -4.38148628
  C           1.97546658       2.83650705      -4.47358628
  O           0.79321325       3.08002612      -4.64378628
  N           2.43903573       1.54051558      -4.36008628
  C           3.74960107       1.15358794      -4.16688628
  O           4.04426486      -0.04057624      -4.08028627
