438

H   -0.769900   -1.230070   -0.047420 
H    0.712170    1.269620   -0.047420 
H   -0.980990    1.067370   -0.047420 
O    1.166230   -1.229710   -0.047420 
C    0.082620   -0.648490   -0.047420 
N   -0.076030    0.679720   -0.047420 
O    4.120830    6.917650    2.749240 
H    3.227830    6.660350    2.978320 
H    4.588550    6.929150    3.584260 
O    6.878920   -2.187430   -0.296410 
H    7.159920   -1.415320   -0.787360 
H    5.942640   -2.261110   -0.481030 
O   -0.217580   -0.241180    9.176820 
H   -0.767920    0.532780    9.296200 
H   -0.722410   -0.806290    8.592070 
O   -8.207880   -1.823540    3.489410 
H   -8.433110   -1.976420    2.571780 
H   -7.383940   -1.337570    3.456140 
O   -5.665650    4.023640    2.755220 
H   -5.923820    3.203420    2.334840 
H   -6.265130    4.112220    3.496120 
O   -5.227930    5.427630    0.354060 
H   -4.794120    6.224740    0.658300 
H   -5.200770    4.837640    1.107270 
O    4.160210    0.117550    4.978180 
H    4.315940    0.180950    5.920440 
H    3.478930    0.766820    4.803690 
O    2.821360   -4.906360   -0.024360 
H    2.959590   -5.824600   -0.256490 
H    2.273740   -4.937330    0.760050 
O    7.515650    2.789890   -5.377360 
H    8.427930    2.513190   -5.291850 
H    7.046730    1.994640   -5.630000 
O   -7.051540   -4.181310   -3.025210 
H   -6.104320   -4.068780   -2.946040 
H   -7.232290   -4.043870   -3.955030 
O   -0.842310    4.635400   -4.942800 
H   -0.028360    5.112080   -5.105310 
H   -0.958220    4.675780   -3.993550 
O   -8.413780    0.727660   -0.220160 
H   -8.407730    0.805390   -1.174130 
H   -9.268780    0.348890   -0.016030 
O   -2.416460    6.478850    2.883630 
H   -2.607550    6.357920    3.813680 
H   -2.976290    7.207920    2.616810 
O   -3.116220    5.494380    5.385660 
H   -3.064260    5.994890    6.199870 
H   -3.395740    4.620680    5.658880 
O    0.943330   -7.611780    1.397910 
H    1.656510   -7.350260    1.980260 
H    0.214190   -7.809230    1.985700 
O   -5.868840   -6.038040    4.795980 
H   -5.676370   -6.920980    4.480530 
H   -5.258720   -5.475080    4.319560 
O    1.262230    3.122770    8.127710 
H    0.652110    3.368420    7.432330 
H    1.590480    3.956590    8.464080 
O   -1.948400   -4.719880   -6.890970 
H   -2.659890   -4.127760   -6.647420 
H   -1.665660   -4.413160   -7.752430 
O    6.620590    0.673080   -0.470280 
H    6.120990    0.499400    0.327450 
H    7.242680    1.355920   -0.219530 
O    2.113650   -9.800780   -0.898430 
H    1.846710   -8.996710   -0.453060 
H    2.488920  -10.344880   -0.206130 
O    1.993430   -3.023070    3.876940 
H    1.574260   -3.080300    4.735520 
H    2.802750   -3.525290    3.971450 
O   -6.289790    3.501630   -1.701740 
H   -7.167680    3.883010   -1.700230 
H   -5.822480    3.973240   -1.012290 
O   -1.710220   -1.291030   -9.558460 
H   -1.325470   -0.832370   -8.811640 
H   -2.186620   -0.612530  -10.036820 
O   -2.481610    0.186140   -1.779420 
H   -3.130150    0.593640   -2.353430 
H   -2.722140    0.478710   -0.900390 
O    2.970930   -7.990650    4.343840 
H    3.030730   -7.252180    3.737850 
H    3.856800   -8.352220    4.369110 
O   -0.856900   -0.054900   -7.233820 
H   -0.534640    0.839200   -7.120340 
H   -1.021720   -0.365030   -6.343430 
O    1.744130   -3.236230    6.564720 
H    0.999290   -3.618110    7.028970 
H    2.313270   -2.902650    7.258220 
O    1.708210    5.159490   -5.694420 
H    2.091100    5.619440   -6.441400 
H    2.461220    4.824890   -5.207430 
O    4.931630    3.898620   -7.731140 
H    4.395750    4.045400   -8.510510 
H    5.678140    3.389050   -8.046110 
O   -2.483570    3.868580    1.966200 
H   -2.257060    4.795540    2.040900 
H   -3.364550    3.806690    2.335220 
O   -3.171030    0.065230    3.135950 
H   -2.496780   -0.612230    3.085210 
H   -3.254280    0.250870    4.071230 
O   -3.558450   -1.816500   -0.003000 
H   -4.386400   -1.341490   -0.073780 
H   -3.174300   -1.760120   -0.877870 
O    3.562580    8.492140   -1.114410 
H    3.750460    7.924010   -1.861450 
H    2.626770    8.373240   -0.952330 
O    9.081710    2.946410    1.018300 
H    9.331120    2.708520    1.911240 
H    9.908950    2.973390    0.537580 
O    7.512790   -0.566320    4.825230 
H    6.955730    0.129630    5.173780 
H    7.149580   -0.753060    3.959580 
O   -3.737410   -7.143980    1.928660 
H   -4.280020   -6.651720    1.312710 
H   -3.085120   -7.578430    1.379190 
O    4.813480   -8.077730   -3.336050 
H    5.336060   -7.306850   -3.556960 
H    4.012470   -7.722010   -2.951350 
O   -1.228200   -5.820610   -3.309980 
H   -0.711730   -6.394770   -2.744520 
H   -1.934850   -6.377850   -3.635960 
O    5.742060   -3.511760   -7.427630 
H    6.368430   -3.072130   -8.002550 
H    4.976320   -2.937510   -7.423830 
O   -1.163600   -4.047900    6.319220 
H   -0.481240   -4.699860    6.159590 
H   -1.902070   -4.552480    6.660110 
O   -3.230600    4.756190   -5.874270 
H   -3.055030    4.685010   -6.812490 
H   -2.380670    4.608610   -5.459570 
O    0.103250    5.321070    3.383690 
H   -0.610230    5.853900    3.032730 
H    0.898740    5.790300    3.132370 
O    2.398170   -1.879530    9.553910 
H    1.850080   -1.156210    9.249680 
H    2.571310   -1.678600   10.473580 
O   -4.091820   -0.630590    8.411450 
H   -3.665660   -1.413610    8.063020 
H   -3.939010   -0.674500    9.355300 
O    1.207210    2.816200   -3.153970 
H    0.468800    3.266890   -2.744370 
H    1.856340    2.735770   -2.455180 
O    3.901180   -2.984540   -3.598870 
H    3.703310   -2.641100   -4.470100 
H    4.426120   -2.299580   -3.184830 
O    4.135380   -2.426720   -0.345050 
H    3.196620   -2.600630   -0.277020 
H    4.551080   -3.217160   -0.000760 
O    2.338220    2.018930   -5.404280 
H    1.753690    2.129200   -4.654410 
H    3.102350    2.555370   -5.193360 
O    6.308780    2.843370    5.994930 
H    6.035670    2.208980    6.657580 
H    7.105630    3.235130    6.352290 
O   -0.622630   -3.269820   -3.518650 
H   -0.979100   -4.137660   -3.329130 
H    0.208300   -3.243270   -3.044310 
O   -0.148610    4.806150    6.412140 
H    0.456920    5.129200    5.744970 
H   -0.873920    5.430580    6.399960 
O    2.392870    3.269520    3.402790 
H    1.469810    3.441220    3.216750 
H    2.695190    2.751100    2.657140 
O   -5.202810   -1.162220   -4.463050 
H   -5.990000   -1.702830   -4.398210 
H   -4.493030   -1.737190   -4.177100 
O    5.485450   -6.071820   -1.304070 
H    5.341740   -6.899510   -0.845370 
H    4.608820   -5.782890   -1.557390 
O    1.946580    0.454350    7.060340 
H    1.253970    0.297360    6.418630 
H    1.732610    1.306430    7.440230 
O    0.630120   -5.194360    8.399060 
H    0.924020   -5.615660    7.591430 
H   -0.319190   -5.316650    8.401380 
O    6.907030    6.920060   -1.382700 
H    6.363770    6.331230   -1.906430 
H    6.619620    6.773240   -0.481600 
O    4.125040    5.071640    5.397430 
H    5.004700    4.716890    5.525900 
H    3.688570    4.432080    4.834760 
O    5.035500   -5.532400   -3.982720 
H    4.646180   -4.719960   -3.659440 
H    5.858220   -5.259040   -4.388360 
O   -1.733680   -9.418610    0.045550 
H   -2.519140   -9.962710   -0.010460 
H   -1.350020   -9.638310    0.894480 
O    3.861260   -0.262100   -1.700560 
H    3.765870   -1.052080   -1.168610 
H    3.081100   -0.250900   -2.254970 
O   -6.221860   -1.230060   -0.898860 
H   -6.899630   -1.236350   -1.574680 
H   -6.577160   -0.670480   -0.208380 
O    6.025160    5.822710    1.002650 
H    6.422310    5.689790    1.863320 
H    5.158180    6.181540    1.191650 
O   -6.700310   -0.001440   -6.800450 
H   -6.617550    0.818100   -7.287930 
H   -6.007900    0.041070   -6.140970 
O    7.413840   -5.869160    2.242070 
H    7.543980   -5.389880    1.423840 
H    8.240410   -6.330570    2.383570 
O    3.355780   -6.150270    2.446660 
H    4.077490   -6.576400    1.984400 
H    3.657120   -5.252490    2.585680 
O   -3.758710    0.598910    5.755230 
H   -2.876390    0.918300    5.944000 
H   -3.972270    0.032550    6.496700 
O    4.789040   -2.727560    7.985580 
H    4.041730   -2.529900    8.550030 
H    5.077510   -3.596260    8.265390 
O   -3.310590    3.204690   -1.313810 
H   -3.057370    2.573770   -0.640030 
H   -4.030530    2.780630   -1.780720 
O    6.349020   -0.521480   -2.859860 
H    6.582290    0.070710   -2.144990 
H    5.415300   -0.691220   -2.735380 
O    1.945740   -2.412970   -5.776670 
H    1.882220   -3.341700   -5.999270 
H    1.110230   -2.209630   -5.356280 
O    4.978220   -7.929870    1.203920 
H    4.725560   -8.839120    1.044050 
H    5.879310   -7.983970    1.522130 
O   -6.402940    1.941210    1.411300 
H   -6.426350    1.122990    1.907410 
H   -7.032020    1.809480    0.702050 
O    6.862440   -1.918680    2.453460 
H    7.776030   -2.203150    2.477350 
H    6.662430   -1.833100    1.521350 
O    0.453990   -3.652370    0.988960 
H    0.463850   -3.410120    1.914890 
H    0.601830   -2.828780    0.524220 
O   -3.060690    1.318380    0.632480 
H   -3.127400    2.203850    0.989730 
H   -3.032080    0.750790    1.402650 
O    2.605280   -6.831950   -2.322120 
H    1.924050   -6.224660   -2.033570 
H    2.321670   -7.114680   -3.191470 
O    3.872010   -1.680930   -7.802120 
H    3.435750   -0.829210   -7.782330 
H    3.217820   -2.293110   -7.465360 
O   -1.189150   -1.847670    3.700610 
H   -1.652440   -2.608060    3.349460 
H   -0.308720   -2.170800    3.891880 
O   -5.978650    4.254530   -5.395960 
H   -5.159280    4.632500   -5.715210 
H   -5.705880    3.514570   -4.853550 
O    2.551360    0.508010   -7.846340 
H    1.992720    1.005730   -8.443280 
H    2.495300    0.980420   -7.015780 
O    1.595440   -4.865160   -6.615350 
H    0.991010   -5.384670   -6.085340 
H    1.503760   -5.219370   -7.499820 
O    5.405090    0.596040    2.199690 
H    5.936100    1.357410    2.433100 
H    5.041640    0.293220    3.031760 
O   -1.396530    1.858620    6.652180 
H   -1.125390    2.732810    6.372120 
H   -0.907370    1.262800    6.084850 
O   -0.558740   -8.794150    3.479090 
H   -1.308900   -9.318540    3.199060 
H   -0.053090   -9.380580    4.041730 
O    7.899590   -5.370610   -2.418930 
H    7.062730   -5.797500   -2.235710 
H    7.709330   -4.769410   -3.139000 
O    9.323930   -3.213100    2.602070 
H    9.005070   -3.634790    1.804170 
H    9.578790   -3.939110    3.171360 
O    6.352870   -3.176470    5.577760 
H    5.779390   -2.784870    6.236470 
H    6.617780   -2.442280    5.023740 
O   -0.462240   -6.760210   -6.354240 
H   -0.947420   -7.375270   -6.904180 
H   -0.948910   -5.939160   -6.426090 
O   -0.480720   -7.428810   -1.376180 
H    0.243510   -7.600060   -0.774260 
H   -1.170310   -8.032000   -1.099100 
O    3.164020    2.480850   -1.241480 
H    2.998950    2.569020   -0.302800 
H    3.349740    1.550150   -1.365730 
O   -4.222470   -5.841610   -0.780260 
H   -4.367900   -5.973010   -1.717130 
H   -3.523340   -5.189420   -0.735450 
O   -1.974580    6.518040    0.016370 
H   -2.107930    6.184610    0.903610 
H   -2.587860    7.248970   -0.059610 
O   -3.643720   -7.187730   -4.647600 
H   -3.395920   -7.754840   -5.377760 
H   -4.509910   -7.499360   -4.385420 
O   -1.619930   -4.928900   -0.148140 
H   -0.754640   -4.735110    0.212220 
H   -1.487690   -5.713450   -0.680240 
O   -6.225720   -3.703470    0.490820 
H   -5.459290   -3.718110    1.063990 
H   -6.051980   -2.990270   -0.123430 
O   -1.499880   -0.702510   -4.475920 
H   -1.016670   -1.492400   -4.233600 
H   -1.711920   -0.285660   -3.640810 
O    2.947140    1.461120    1.515280 
H    3.833320    1.127890    1.655930 
H    2.382190    0.842210    1.977800 
O    4.081380    6.148780   -2.777240 
H    4.785430    5.566770   -3.063100 
H    3.893030    6.691150   -3.543080 
O    6.516630    2.762880    3.212920 
H    6.555450    3.111610    4.103440 
H    6.784670    3.494600    2.657140 
O    4.415490    0.097150    7.769990 
H    4.523500   -0.760760    8.180460 
H    3.470850    0.184800    7.643010 
O   -8.192770    0.509840   -3.017230 
H   -8.841730    0.166650   -3.631410 
H   -7.984130    1.382070   -3.351630 
O   -0.975910    4.348360   -2.052930 
H   -1.799010    3.930450   -1.799940 
H   -0.927090    5.132210   -1.505820 
O   -2.866440   -1.916300   -6.483430 
H   -2.535420   -1.514720   -7.286740 
H   -2.463670   -1.409340   -5.778520 
O    5.950480   -6.128540    4.344440 
H    6.031460   -5.381910    4.937840 
H    6.422480   -5.860380    3.556120 
O    0.516110    2.120120   -9.280600 
H    0.307850    2.691110  -10.020020 
H   -0.315650    2.012320   -8.819400 
O   10.213900   -0.844550   -0.201650 
H   10.234460    0.016510   -0.619140 
H   10.416870   -0.670190    0.717330 
O   -3.506680    1.755380   -7.920750 
H   -3.190020    1.527180   -8.794700 
H   -2.711890    1.861860   -7.398140 
O   -1.261200   -1.332980    6.981820 
H   -0.713270   -0.828550    6.380600 
H   -1.231490   -2.226720    6.640520 
O   -4.238840    8.040090    1.038960 
H   -3.725600    8.777240    1.369640 
H   -5.097230    8.414950    0.842050 
O   -5.761160   -0.383460    2.875880 
H   -5.716360   -0.362220    3.831750 
H   -4.847060   -0.364350    2.592670 
O    6.955120   -4.837800   -5.474050 
H    6.521140   -4.298230   -6.134860 
H    7.309640   -5.579010   -5.965020 
O    6.309220    4.792090   -3.251520 
H    7.093560    5.160090   -3.658360 
H    6.635100    4.324210   -2.482730 
O    6.147320    0.170060   -5.398660 
H    5.205280    0.055950   -5.523920 
H    6.327160   -0.235700   -4.550620 
O   -2.093570    7.653430   -4.139440 
H   -2.699510    7.580840   -4.876810 
H   -2.565350    7.265470   -3.402520 
O   -1.598110    2.231720    9.246750 
H   -1.500940    2.257110    8.294880 
H   -2.238610    2.916060    9.440570 
O    4.566900   -3.648370    2.903750 
H    4.581580   -2.714640    2.693810 
H    5.482750   -3.870880    3.070620 
O   -4.967020    1.186790   -2.590050 
H   -5.578330    1.849420   -2.268550 
H   -5.504390    0.404190   -2.712190 
O   -2.854230   -7.581860    4.715680 
H   -1.916430   -7.639480    4.533090 
H   -3.260690   -7.487160    3.854310 
O    7.635150   -2.902240   -3.412310 
H    7.275550   -3.182970   -4.253750 
H    7.268800   -2.028760   -3.274600 
O   -8.311970   -4.798910   -0.841690 
H   -7.986430   -4.299220   -1.590340 
H   -7.565340   -4.850300   -0.244990 
O    1.531810   -6.195000    6.020270 
H    1.410270   -6.674610    5.200910 
H    2.476670   -6.215210    6.171860 
O   -6.133730   -4.272740   -5.776620 
H   -6.652990   -3.698750   -6.339680 
H   -5.871220   -4.994800   -6.347460 
O   -4.313020   -4.813490   -3.753320 
H   -4.884760   -4.526630   -4.465350 
H   -4.042510   -5.696660   -4.004240 
O    0.757480    6.922920    0.887870 
H    1.176830    6.800700    0.036200 
H   -0.165780    6.725160    0.730940 
O    4.043240    3.974070   -5.252320 
H    4.513860    3.895740   -6.082090 
H    4.690660    4.326960   -4.642030 
O    0.359530    0.388130    4.776880 
H    0.845810   -0.047600    4.077020 
H   -0.067750    1.128710    4.346620 
O    1.758860    6.430110   -1.440070 
H    2.690350    6.287980   -1.608180 
H    1.375250    5.553420   -1.460160 
O    1.750080   -4.025490   -2.242410 
H    2.205440   -4.013750   -1.400590 
H    2.450890   -4.010560   -2.894150 
O    1.211980   -7.735690   -4.707530 
H    1.871130   -8.002880   -5.348050 
H    0.506380   -7.358540   -5.232910 
O    7.414710    4.260190   -0.660730 
H    7.060810    4.830250    0.021850 
H    8.043670    3.701570   -0.204100 
O   -3.812100    3.538360    7.202990 
H   -4.555260    3.139550    7.655540 
H   -3.204970    2.813470    7.054380 
O    1.656650   -0.741260    2.561120 
H    1.334920   -0.965980    1.688120 
H    1.815220   -1.585760    2.982790 
O    7.987220   -4.417760    0.250520 
H    7.432500   -3.676530    0.007600 
H    8.150990   -4.874930   -0.574290 
O   -0.286990    8.476190   -1.722000 
H   -0.708140    8.057200   -2.472480 
H    0.369170    7.842960   -1.431100 
O   -3.195520   -2.629320   -2.706920 
H   -2.314450   -2.531120   -3.067780 
H   -3.554230   -3.394970   -3.155520 
O   -2.668970   -3.318260    1.901450 
H   -3.086750   -2.649480    1.358910 
H   -2.420880   -4.006710    1.284500 
O   -4.000470   -4.107800    4.049750 
H   -3.648470   -3.818090    3.208140 
H   -3.388960   -3.758840    4.698150 
O   -1.371960   -6.879150    7.186090 
H   -0.961250   -7.740350    7.262190 
H   -2.277520   -7.066520    6.939140 
O   -3.659530    6.383890   -2.476640 
H   -3.543660    5.772280   -1.749560 
H   -4.283520    5.949470   -3.058070 
O   -0.278680    2.443060   -6.538590 
H   -0.546950    3.183540   -5.994660 
H    0.342180    1.958620   -5.994540 
O   -0.684740    2.291540    3.410770 
H   -1.426380    2.428700    2.821460 
H   -0.256870    3.146300    3.460430 
O    1.481340    7.549650    3.523390 
H    1.271170    7.467620    2.593210 
H    0.973620    8.305660    3.818010 
O    3.503290   -0.424930   -4.844930 
H    3.143240    0.438780   -5.046190 
H    2.873540   -1.040410   -5.220080 
