69

H   -0.769900   -1.230070   -0.047420 
H    0.712170    1.269620   -0.047420 
H   -0.980990    1.067370   -0.047420 
O    1.166230   -1.229710   -0.047420 
C    0.082620   -0.648490   -0.047420 
N   -0.076030    0.679720   -0.047420 
O    2.821360   -4.906360   -0.024360 
H    2.959590   -5.824600   -0.256490 
H    2.273740   -4.937330    0.760050 
O    1.993430   -3.023070    3.876940 
H    1.574260   -3.080300    4.735520 
H    2.802750   -3.525290    3.971450 
O   -2.481610    0.186140   -1.779420 
H   -3.130150    0.593640   -2.353430 
H   -2.722140    0.478710   -0.900390 
O   -3.171030    0.065230    3.135950 
H   -2.496780   -0.612230    3.085210 
H   -3.254280    0.250870    4.071230 
O   -3.558450   -1.816500   -0.003000 
H   -4.386400   -1.341490   -0.073780 
H   -3.174300   -1.760120   -0.877870 
O    1.207210    2.816200   -3.153970 
H    0.468800    3.266890   -2.744370 
H    1.856340    2.735770   -2.455180 
O    4.135380   -2.426720   -0.345050 
H    3.196620   -2.600630   -0.277020 
H    4.551080   -3.217160   -0.000760 
O   -0.622630   -3.269820   -3.518650 
H   -0.979100   -4.137660   -3.329130 
H    0.208300   -3.243270   -3.044310 
O    3.861260   -0.262100   -1.700560 
H    3.765870   -1.052080   -1.168610 
H    3.081100   -0.250900   -2.254970 
O    0.453990   -3.652370    0.988960 
H    0.463850   -3.410120    1.914890 
H    0.601830   -2.828780    0.524220 
O   -3.060690    1.318380    0.632480 
H   -3.127400    2.203850    0.989730 
H   -3.032080    0.750790    1.402650 
O   -1.189150   -1.847670    3.700610 
H   -1.652440   -2.608060    3.349460 
H   -0.308720   -2.170800    3.891880 
O    3.164020    2.480850   -1.241480 
H    2.998950    2.569020   -0.302800 
H    3.349740    1.550150   -1.365730 
O   -1.619930   -4.928900   -0.148140 
H   -0.754640   -4.735110    0.212220 
H   -1.487690   -5.713450   -0.680240 
O   -1.499880   -0.702510   -4.475920 
H   -1.016670   -1.492400   -4.233600 
H   -1.711920   -0.285660   -3.640810 
O    2.947140    1.461120    1.515280 
H    3.833320    1.127890    1.655930 
H    2.382190    0.842210    1.977800 
O    0.359530    0.388130    4.776880 
H    0.845810   -0.047600    4.077020 
H   -0.067750    1.128710    4.346620 
O    1.750080   -4.025490   -2.242410 
H    2.205440   -4.013750   -1.400590 
H    2.450890   -4.010560   -2.894150 
O    1.656650   -0.741260    2.561120 
H    1.334920   -0.965980    1.688120 
H    1.815220   -1.585760    2.982790 
O   -2.668970   -3.318260    1.901450 
H   -3.086750   -2.649480    1.358910 
H   -2.420880   -4.006710    1.284500 
O   -0.684740    2.291540    3.410770 
H   -1.426380    2.428700    2.821460 
H   -0.256870    3.146300    3.460430 
