195

H   -0.769900   -1.230070   -0.047420 
H    0.712170    1.269620   -0.047420 
H   -0.980990    1.067370   -0.047420 
O    1.166230   -1.229710   -0.047420 
C    0.082620   -0.648490   -0.047420 
N   -0.076030    0.679720   -0.047420 
O    6.878920   -2.187430   -0.296410 
H    7.159920   -1.415320   -0.787360 
H    5.942640   -2.261110   -0.481030 
O    4.160210    0.117550    4.978180 
H    4.315940    0.180950    5.920440 
H    3.478930    0.766820    4.803690 
O    2.821360   -4.906360   -0.024360 
H    2.959590   -5.824600   -0.256490 
H    2.273740   -4.937330    0.760050 
O   -0.842310    4.635400   -4.942800 
H   -0.028360    5.112080   -5.105310 
H   -0.958220    4.675780   -3.993550 
O    0.943330   -7.611780    1.397910 
H    1.656510   -7.350260    1.980260 
H    0.214190   -7.809230    1.985700 
O    6.620590    0.673080   -0.470280 
H    6.120990    0.499400    0.327450 
H    7.242680    1.355920   -0.219530 
O    1.993430   -3.023070    3.876940 
H    1.574260   -3.080300    4.735520 
H    2.802750   -3.525290    3.971450 
O   -2.481610    0.186140   -1.779420 
H   -3.130150    0.593640   -2.353430 
H   -2.722140    0.478710   -0.900390 
O   -0.856900   -0.054900   -7.233820 
H   -0.534640    0.839200   -7.120340 
H   -1.021720   -0.365030   -6.343430 
O    1.744130   -3.236230    6.564720 
H    0.999290   -3.618110    7.028970 
H    2.313270   -2.902650    7.258220 
O   -2.483570    3.868580    1.966200 
H   -2.257060    4.795540    2.040900 
H   -3.364550    3.806690    2.335220 
O   -3.171030    0.065230    3.135950 
H   -2.496780   -0.612230    3.085210 
H   -3.254280    0.250870    4.071230 
O   -3.558450   -1.816500   -0.003000 
H   -4.386400   -1.341490   -0.073780 
H   -3.174300   -1.760120   -0.877870 
O   -1.228200   -5.820610   -3.309980 
H   -0.711730   -6.394770   -2.744520 
H   -1.934850   -6.377850   -3.635960 
O   -1.163600   -4.047900    6.319220 
H   -0.481240   -4.699860    6.159590 
H   -1.902070   -4.552480    6.660110 
O    0.103250    5.321070    3.383690 
H   -0.610230    5.853900    3.032730 
H    0.898740    5.790300    3.132370 
O    1.207210    2.816200   -3.153970 
H    0.468800    3.266890   -2.744370 
H    1.856340    2.735770   -2.455180 
O    3.901180   -2.984540   -3.598870 
H    3.703310   -2.641100   -4.470100 
H    4.426120   -2.299580   -3.184830 
O    4.135380   -2.426720   -0.345050 
H    3.196620   -2.600630   -0.277020 
H    4.551080   -3.217160   -0.000760 
O    2.338220    2.018930   -5.404280 
H    1.753690    2.129200   -4.654410 
H    3.102350    2.555370   -5.193360 
O   -0.622630   -3.269820   -3.518650 
H   -0.979100   -4.137660   -3.329130 
H    0.208300   -3.243270   -3.044310 
O    2.392870    3.269520    3.402790 
H    1.469810    3.441220    3.216750 
H    2.695190    2.751100    2.657140 
O   -5.202810   -1.162220   -4.463050 
H   -5.990000   -1.702830   -4.398210 
H   -4.493030   -1.737190   -4.177100 
O    5.485450   -6.071820   -1.304070 
H    5.341740   -6.899510   -0.845370 
H    4.608820   -5.782890   -1.557390 
O    1.946580    0.454350    7.060340 
H    1.253970    0.297360    6.418630 
H    1.732610    1.306430    7.440230 
O    3.861260   -0.262100   -1.700560 
H    3.765870   -1.052080   -1.168610 
H    3.081100   -0.250900   -2.254970 
O   -6.221860   -1.230060   -0.898860 
H   -6.899630   -1.236350   -1.574680 
H   -6.577160   -0.670480   -0.208380 
O    3.355780   -6.150270    2.446660 
H    4.077490   -6.576400    1.984400 
H    3.657120   -5.252490    2.585680 
O   -3.758710    0.598910    5.755230 
H   -2.876390    0.918300    5.944000 
H   -3.972270    0.032550    6.496700 
O   -3.310590    3.204690   -1.313810 
H   -3.057370    2.573770   -0.640030 
H   -4.030530    2.780630   -1.780720 
O    6.349020   -0.521480   -2.859860 
H    6.582290    0.070710   -2.144990 
H    5.415300   -0.691220   -2.735380 
O    1.945740   -2.412970   -5.776670 
H    1.882220   -3.341700   -5.999270 
H    1.110230   -2.209630   -5.356280 
O    6.862440   -1.918680    2.453460 
H    7.776030   -2.203150    2.477350 
H    6.662430   -1.833100    1.521350 
O    0.453990   -3.652370    0.988960 
H    0.463850   -3.410120    1.914890 
H    0.601830   -2.828780    0.524220 
O   -3.060690    1.318380    0.632480 
H   -3.127400    2.203850    0.989730 
H   -3.032080    0.750790    1.402650 
O    2.605280   -6.831950   -2.322120 
H    1.924050   -6.224660   -2.033570 
H    2.321670   -7.114680   -3.191470 
O   -1.189150   -1.847670    3.700610 
H   -1.652440   -2.608060    3.349460 
H   -0.308720   -2.170800    3.891880 
O    5.405090    0.596040    2.199690 
H    5.936100    1.357410    2.433100 
H    5.041640    0.293220    3.031760 
O   -1.396530    1.858620    6.652180 
H   -1.125390    2.732810    6.372120 
H   -0.907370    1.262800    6.084850 
O   -0.480720   -7.428810   -1.376180 
H    0.243510   -7.600060   -0.774260 
H   -1.170310   -8.032000   -1.099100 
O    3.164020    2.480850   -1.241480 
H    2.998950    2.569020   -0.302800 
H    3.349740    1.550150   -1.365730 
O   -4.222470   -5.841610   -0.780260 
H   -4.367900   -5.973010   -1.717130 
H   -3.523340   -5.189420   -0.735450 
O   -1.619930   -4.928900   -0.148140 
H   -0.754640   -4.735110    0.212220 
H   -1.487690   -5.713450   -0.680240 
O   -6.225720   -3.703470    0.490820 
H   -5.459290   -3.718110    1.063990 
H   -6.051980   -2.990270   -0.123430 
O   -1.499880   -0.702510   -4.475920 
H   -1.016670   -1.492400   -4.233600 
H   -1.711920   -0.285660   -3.640810 
O    2.947140    1.461120    1.515280 
H    3.833320    1.127890    1.655930 
H    2.382190    0.842210    1.977800 
O   -0.975910    4.348360   -2.052930 
H   -1.799010    3.930450   -1.799940 
H   -0.927090    5.132210   -1.505820 
O   -2.866440   -1.916300   -6.483430 
H   -2.535420   -1.514720   -7.286740 
H   -2.463670   -1.409340   -5.778520 
O   -1.261200   -1.332980    6.981820 
H   -0.713270   -0.828550    6.380600 
H   -1.231490   -2.226720    6.640520 
O   -5.761160   -0.383460    2.875880 
H   -5.716360   -0.362220    3.831750 
H   -4.847060   -0.364350    2.592670 
O    4.566900   -3.648370    2.903750 
H    4.581580   -2.714640    2.693810 
H    5.482750   -3.870880    3.070620 
O   -4.967020    1.186790   -2.590050 
H   -5.578330    1.849420   -2.268550 
H   -5.504390    0.404190   -2.712190 
O   -4.313020   -4.813490   -3.753320 
H   -4.884760   -4.526630   -4.465350 
H   -4.042510   -5.696660   -4.004240 
O    0.359530    0.388130    4.776880 
H    0.845810   -0.047600    4.077020 
H   -0.067750    1.128710    4.346620 
O    1.758860    6.430110   -1.440070 
H    2.690350    6.287980   -1.608180 
H    1.375250    5.553420   -1.460160 
O    1.750080   -4.025490   -2.242410 
H    2.205440   -4.013750   -1.400590 
H    2.450890   -4.010560   -2.894150 
O    1.656650   -0.741260    2.561120 
H    1.334920   -0.965980    1.688120 
H    1.815220   -1.585760    2.982790 
O   -3.195520   -2.629320   -2.706920 
H   -2.314450   -2.531120   -3.067780 
H   -3.554230   -3.394970   -3.155520 
O   -2.668970   -3.318260    1.901450 
H   -3.086750   -2.649480    1.358910 
H   -2.420880   -4.006710    1.284500 
O   -4.000470   -4.107800    4.049750 
H   -3.648470   -3.818090    3.208140 
H   -3.388960   -3.758840    4.698150 
O   -0.278680    2.443060   -6.538590 
H   -0.546950    3.183540   -5.994660 
H    0.342180    1.958620   -5.994540 
O   -0.684740    2.291540    3.410770 
H   -1.426380    2.428700    2.821460 
H   -0.256870    3.146300    3.460430 
O    3.503290   -0.424930   -4.844930 
H    3.143240    0.438780   -5.046190 
H    2.873540   -1.040410   -5.220080 
