68

  O      2.948165   -2.498876   -0.127566
  O      0.573279   -1.338165    2.640613
  O      5.167584    0.249388   -0.216923
  O     -3.440429    1.189343    4.627194
  N      0.691751   -2.597439    0.164426
  N     -1.537446   -0.507378    2.270609
  N      3.028922    0.093476   -0.994416
  N      1.277493    2.911964    0.286610
  N      2.691704    3.510070   -1.460724
  N      0.841998    4.879778   -1.026816
  C     -0.550106   -1.972928    0.575180
  C     -1.642093   -3.057226    0.665622
  C     -1.949988   -3.773622   -0.657280
  C      1.722401   -0.512386   -0.761665
  C      0.963660   -0.554001   -2.103657
  C      0.427297    0.808990   -2.564171
  C      1.862559   -1.935250   -0.189370
  C     -0.419327   -1.244037    1.927238
  C     -2.851986   -4.984569   -0.392839
  C     -2.608726   -2.827885   -1.667476
  C     -1.502480    0.467407    3.356754
  C     -1.330877    1.901876    2.843930
  C      0.079421    0.771322   -4.056019
  C     -0.795959    1.230458   -1.741545
  C      0.003712    2.042652    2.115761
  C      3.973707    0.236055    0.046441
  C     -2.743972    0.277220    4.219856
  C      0.142078    3.219127    1.149230
  C      3.406943    0.486447    1.424660
  C      1.565610    3.737932   -0.664817
  H     -0.843224   -1.221879   -0.179017
  H     -1.310993   -3.794766    1.423834
  H     -2.572169   -2.608783    1.061359
  H     -0.993668   -4.131301   -1.081555
  H      1.178702    0.126603   -0.044039
  H      1.661643   -0.964251   -2.860209
  H      0.131090   -1.278237   -2.048068
  H      1.226374    1.552417   -2.402638
  H      0.917354   -3.451979    0.677152
  H     -0.629247    0.174829    3.972427
  H     -2.376882   -5.694569    0.305227
  H     -3.074927   -5.523646   -1.328911
  H     -3.812478   -4.663562    0.049650
  H     -2.831584   -3.354939   -2.610642
  H     -3.563215   -2.439251   -1.265848
  H     -1.967231   -1.966260   -1.915863
  H     -2.212543   -0.329479    1.528872
  H      3.511532   -0.335574   -1.788756
  H     -2.174087    2.130784    2.162321
  H     -1.423810    2.599743    3.693525
  H      0.966665    0.538665   -4.669608
  H     -0.328163    1.739570   -4.394554
  H     -0.683408   -0.003442   -4.256557
  H     -1.092589    2.266590   -1.980862
  H     -1.654803    0.568773   -1.964467
  H     -0.587955    1.192139   -0.660007
  H      0.837284    2.056460    2.840563
  H      0.163853    1.141690    1.502065
  H     -2.974516   -0.794854    4.449100
  H     -0.797874    3.321977    0.563770
  H      0.277904    4.171379    1.708036
  H      4.245935    0.650842    2.114507
  H      2.802916   -0.364711    1.778195
  H      2.758341    1.376984    1.380071
  H      3.002937    2.541159   -1.343514
  H      2.511558    3.703351   -2.446170
  H      1.445037    5.615759   -1.392672
  H      0.271346    5.242026   -0.265656
