98 

N    -4.9649205    2.5733876    0.2436094
C    -5.3232813    3.9336300    0.4882220
C    -5.9781162    1.5708472    0.3307508
C    -3.6394348    2.2239495   -0.0791397
C    -2.5381869    2.9617536    0.4289160
C    -1.2287470    2.6016629    0.1103800
C    -0.9359481    1.4915506   -0.7251381
C    -2.0458660    0.7634725   -1.2314400
C    -3.3588272    1.1156139   -0.9215166
C    -5.7500066    0.3712118    1.0477593
C    -6.7421950   -0.6059108    1.1369568
C    -8.0050150   -0.4080191    0.5305993
C    -8.2466522    0.7919215   -0.1725322
C    -7.2360179    1.7617831   -0.2752634
C    -6.1296578    4.2759980    1.6003323
C    -6.4974813    5.6021004    1.8338296
C    -6.0571999    6.6345780    0.9728661
C    -5.2480863    6.3029248   -0.1358567
C    -4.8991886    4.9638425   -0.3756167
O    -6.4610621    7.8967629    1.2921055
C    -6.0533825    8.9862817    0.4653871
C    -6.6294588   10.2708931    1.0505179
C    -6.2508011   11.5187235    0.2418139
C    -6.8193451   12.8214595    0.8224793
C    -6.4441997   14.0754885    0.0200729
C    -7.0126527   15.3723261    0.6067926
O    -8.9078896   -1.4174389    0.6829605
C   -10.2033648   -1.2877628    0.0986837
C   -10.9983443   -2.5479651    0.4220979
C   -12.4209980   -2.5239724   -0.1515339
C   -13.2305137   -3.7891928    0.1670898
C   -14.6574803   -3.7742331   -0.3985827
C   -15.4584913   -5.0403266   -0.0755244
C     0.4326412    1.1021992   -1.0523403
S     1.8033190    2.0927907   -0.5680023
C     2.9652942    0.9826558   -1.2858432
C     2.2934155   -0.0918077   -1.8774879
C     0.8869345   -0.0243856   -1.7466015
C     4.3811864    1.2418489   -1.2117796
C     5.0598494    2.2746726   -0.5508040
C     6.4618394    2.2026670   -0.6905194
C     6.9142159    1.1219066   -1.4644255
S     5.5276803    0.1831369   -2.0229036
C     8.3009411    0.8362928   -1.7223793
C     8.9206085   -0.1494624   -2.4564280
C    10.4028058   -0.2000934   -2.4961024
C     8.2475054   -1.2873227   -3.2042374
N     8.3840403   -2.6080482   -2.5756183
O    11.0457726   -1.0972608   -3.0345976
O    11.0325510    0.8441069   -1.8784937
H    -2.7213601    3.8178325    1.0932540
H    -0.4022780    3.1872073    0.5438970
H    -1.8777031   -0.0901352   -1.9041013
H    -4.1908925    0.5344909   -1.3434981
H    -4.7790152    0.2112402    1.5391705
H    -6.5704764   -1.5394766    1.6924196
H    -9.2147898    0.9784177   -0.6561736
H    -7.4291191    2.6890003   -0.8345882
H    -6.4688224    3.4843417    2.2841704
H    -7.1235752    5.8735200    2.6962678
H    -4.8957647    7.0769120   -0.8305998
H    -4.2819297    4.7141696   -1.2512307
H    -4.9395559    9.0388652    0.4227836
H    -6.4160602    8.8318397   -0.5786396
H    -7.7348812   10.1695581    1.1053297
H    -6.2746445   10.3713067    2.0989585
H    -5.1417615   11.5999924    0.1798500
H    -6.6018456   11.4022461   -0.8087662
H    -7.9284247   12.7419126    0.8850533
H    -6.4692584   12.9383832    1.8732506
H    -5.3353577   14.1498146   -0.0433250
H    -6.7953104   13.9554013   -1.0293783
H    -6.7224290   16.2560615    0.0033091
H    -6.6496891   15.5416757    1.6423351
H    -8.1217758   15.3458663    0.6476277
H   -10.7172142   -0.3833894    0.5032579
H   -10.1139737   -1.1511788   -1.0051075
H   -10.4415706   -3.4266236    0.0304308
H   -11.0326698   -2.6694900    1.5262462
H   -12.9648651   -1.6336832    0.2388603
H   -12.3750766   -2.3872506   -1.2558428
H   -12.6883834   -4.6798462   -0.2246678
H   -13.2740426   -3.9283995    1.2711315
H   -15.1958016   -2.8821479   -0.0065840
H   -14.6108852   -3.6335954   -1.5017374
H   -16.4824060   -4.9956840   -0.4984150
H   -15.5564922   -5.1888169    1.0203733
H   -14.9669353   -5.9465677   -0.4876131
H     2.8207506   -0.9130478   -2.3834840
H     0.2103953   -0.7946668   -2.1394103
H     4.5379853    3.0516960    0.0250531
H     7.1617508    2.9187913   -0.2370270
H     8.9720152    1.5535570   -1.2212141
H     7.1713149   -1.0674345   -3.3549569
H     8.6936434   -1.3536820   -4.2180202
H     8.0676994   -2.5557387   -1.5971977
H     9.3878305   -2.8355916   -2.5369678
H    11.9893636    0.6538084   -1.9856981
