293
Bivalirudin: Charge=0, Geometry from ChemSpider relaxed using MMFF94 in Avogadro
C    7.191710   12.876680    0.905410
C    7.606910   13.731960   -0.300490
C    6.429380   13.829310   -1.288220
C    5.146640   14.462230   -0.709910
C    4.026590   14.403220   -1.752060
C    5.362820   15.908710   -0.264060
C    9.515790   13.713480   -1.906470
C   10.744350   12.894800   -2.390250
C   11.481400   13.583360   -3.550800
C   12.420390   14.681300   -3.107800
C   13.672680   14.365170   -2.561100
C   12.054860   16.028910   -3.234500
C   12.923480   17.043270   -2.826000
C   14.161450   16.708120   -2.289340
C   14.541120   15.378800   -2.153230
C    5.887010    9.658650   -1.737680
C   10.160950   10.516000   -1.895790
C    7.341440    9.386250   -1.445870
C    8.161690    9.205540   -2.729030
C    9.680800    9.179020   -2.495680
C   13.304440    6.508820    2.714610
C   11.241860    7.383430   -1.785060
C   12.476700    5.901270    1.607480
C   12.338700    6.869910    0.423390
C   11.468520    6.305840   -0.703870
C   11.262940    4.200100   -1.954120
C   11.907720    2.806180   -2.069820
C   10.855390    0.855050   -2.991160
C   11.416050    1.680390   -4.137800
C   12.480730    2.540600   -3.460750
C   10.236510    1.684440   -0.663570
C    9.171000    0.577730   -0.462630
C    7.728350    1.070000   -0.758810
C    6.710370   -0.052530   -0.437510
C    7.544820    1.568200   -2.195490
C    5.253860    0.370870   -0.576440
C   12.652700    2.324080    4.655250
C   10.208760   -0.607130    1.477200
C   11.818250    1.065010    4.577620
C   11.637130    0.600530    3.133070
C   10.488060   -0.402120    2.980310
C   11.586360   -6.972730    2.975010
C    9.754810   -2.425190    4.155390
C   10.984270   -6.150670    4.086340
C   10.581450   -4.761130    3.580840
C   10.136970   -3.817450    4.704640
C    8.981750   -5.065110    6.540730
C    7.588430   -5.501660    7.031570
C    7.663990   -6.083260    8.450510
C    6.313140   -6.500290    8.988400
C    6.022560   -7.854520    9.204690
C    5.330130   -5.541670    9.272590
C    4.078550   -5.931650    9.751690
C    4.770520   -8.241600    9.685420
C    3.798470   -7.280920    9.956350
C    5.988810   -7.255610    4.013800
C    7.787450   -8.837400    3.474640
C    6.354110   -6.108610    4.960840
C    7.168000   -7.533820    3.084730
C    4.178590   -7.833640    2.451030
C    2.942750   -7.324040    1.710150
C    0.282310  -10.951290    1.614720
C    1.059690   -8.667080    0.835610
C    0.732880  -11.015260    3.055570
C   -0.150290   -9.537980    1.232810
C   -2.391230   -9.737970    0.180640
C   -3.174620   -9.613890   -1.123760
C   -5.260950   -8.547080   -1.880250
C   -6.479810   -7.745910   -1.427030
C   -8.479240   -6.731210   -2.439010
C   -9.388280   -6.729050   -3.666090
C  -11.334180   -5.465450   -4.485810
C  -12.133110   -4.171380   -4.344480
C  -14.415690   -3.372240   -4.812110
C  -15.832970   -3.821540   -5.226350
C  -17.307970   -2.139880   -6.113840
C  -16.364840   -2.602090   -7.214480
C  -15.930420   -3.987230   -6.743080
C  -18.272760    4.698620   -2.473300
C  -17.269050   -2.622240   -3.622120
C  -18.285230   -1.486120   -3.370760
C  -17.727640    2.327870   -2.809550
C  -17.536840   -0.175880   -3.100070
C  -18.488820    1.020900   -3.027130
C  -20.237400   -2.645910   -2.395600
C  -20.863620   -3.122560   -1.064810
C  -22.161520   -5.144770   -1.211270
C  -20.683960   -5.504410   -1.125670
C  -20.057070   -4.277480   -0.470030
C  -23.292170   -2.882990   -1.439760
C  -24.657950   -3.579640   -1.666930
C  -25.802130   -2.555990   -1.502200
C  -27.181350   -3.176720   -1.548320
C  -27.999230   -3.009230   -2.674300
C  -27.654430   -3.940160   -0.472200
C  -28.918660   -4.529120   -0.524740
C  -29.262770   -3.599770   -2.724810
C  -29.721570   -4.360230   -1.651070
O    7.248010   13.521360    2.091320
O    6.853920   11.698290    0.826310
O    9.257900   14.852550   -2.287400
O   15.040730   17.666400   -1.880020
O    5.306370    9.294380   -2.748520
O   10.263910   10.702540   -0.682140
O    5.261850   10.331620   -0.746570
O   13.574910    5.646230    3.715310
O   12.042360    7.617690   -2.687210
O   13.696020    7.666310    2.733100
O   10.132730    4.465880   -2.356830
O   10.458550    2.505310    0.238510
O   13.270270    2.474430    5.845580
O   10.820330   -1.419570    0.788770
O   12.737430    3.175840    3.778980
O   11.161190   -8.250940    2.931450
O    8.605040   -1.988380    4.233410
O   12.408540   -6.534620    2.182490
O   10.030670   -5.399790    7.083180
O    8.864880   -8.905900    4.056530
O    7.043330   -9.916710    3.164750
O    6.072980   -4.938520    4.708500
O    4.627950   -8.977930    2.350230
O    1.295550   -8.382670   -0.339060
O    1.028270  -10.032490    3.728460
O   -2.941370   -9.976000    1.254810
O   -5.047290   -8.818970   -3.060400
O   -8.705740   -6.041640   -1.446000
O  -11.619010   -6.329170   -5.314580
O  -14.098990   -2.200190   -4.617960
O  -16.829840   -3.303090   -2.688860
O  -20.656310   -2.962710   -3.507180
O  -23.189010   -1.653350   -1.417030
N    8.774120   13.103760   -0.914280
N   10.312140   11.544650   -2.796190
N   10.071950    8.093650   -1.611810
N   12.053600    5.110410   -1.282860
N   10.906770    1.761630   -1.860910
N    9.299290    0.290810    0.971060
N   10.777270   -1.687400    3.599730
N    8.949080   -4.321090    5.385110
N    7.088910   -6.483860    6.060590
N    4.801700   -6.899390    3.248030
N    1.826820   -8.226540    1.883120
N    0.845050  -12.274600    3.562480
N   -1.037950   -9.551420    0.066330
N   -4.413160   -8.907200   -0.863300
N   -7.412520   -7.589350   -2.523720
N  -10.263130   -5.574690   -3.636350
N  -13.505440   -4.402150   -4.742720
N  -16.828150   -2.803670   -4.913400
N  -19.299350    5.558950   -2.414280
N  -18.661010    3.432550   -2.723960
N  -17.053290    5.059330   -2.304720
N  -19.103960   -1.874000   -2.227960
N  -22.191110   -3.691380   -1.256070
N  -24.667390   -4.209240   -3.008980
H    7.917050   14.729730    0.024840
H    7.583020   14.438520    2.046030
H    6.735870   14.401370   -2.172820
H    6.191390   12.823110   -1.657790
H    9.134060   12.227820   -0.527940
H    4.814630   13.881050    0.158790
H    4.286670   14.975360   -2.649080
H    3.095680   14.813350   -1.346230
H    3.830350   13.368700   -2.053430
H    5.750040   16.523150   -1.083770
H    6.068360   15.968300    0.569850
H    4.421930   16.354370    0.076630
H   11.411810   12.781760   -1.526370
H   12.081000   12.844910   -4.101360
H   10.765640   13.974080   -4.286080
H   10.121110   11.377130   -3.777420
H   10.181890    9.044890   -3.461990
H    5.853140   10.624790   -0.008110
H    9.570540    7.981160   -0.740320
H   13.210090    4.732430    3.601900
H   10.490550    6.022720   -0.292220
H   13.044440    4.941230   -1.173950
H   12.683240    2.701860   -1.300990
H   11.504950    0.003370   -2.759800
H    9.850940    0.481590   -3.185920
H   11.819040    1.062670   -4.944940
H   10.632600    2.324630   -4.554920
H   12.700970    3.449870   -4.028150
H   13.408660    1.962460   -3.372240
H    9.428630   -0.317590   -1.035790
H    8.957070    1.019900    1.586390
H    7.513750    1.920800   -0.096500
H    6.852890   -0.397540    0.593270
H    6.894610   -0.917920   -1.086050
H    7.631410    0.748260   -2.914950
H    8.273590    2.340530   -2.453270
H    6.559440    2.025510   -2.330630
H    5.049480    1.274680    0.005870
H    4.597000   -0.424420   -0.209020
H    4.985670    0.558370   -1.620060
H   13.105200    1.759600    6.490470
H    9.585380    0.020590    3.438620
H   11.640030   -2.150540    3.336070
H   10.473770   -8.510090    3.592410
H   11.731390   -6.079800    4.884040
H   10.107270   -6.661620    4.489900
H    9.778070   -4.866460    2.839330
H   11.425060   -4.312940    3.042370
H   10.943360   -3.684700    5.435280
H    8.042590   -4.005620    5.029720
H    6.935970   -4.619890    7.017640
H    8.098300   -5.344750    9.137150
H    8.346320   -6.943610    8.468310
H    7.367800   -7.450280    6.191120
H    6.769410   -8.620100    9.006520
H    5.529650   -4.482540    9.125020
H    3.322100   -5.181540    9.968500
H    4.554330   -9.293610    9.853480
H    2.824550   -7.583040   10.332760
H    4.446890   -5.949290    3.337570
H    6.175290   -9.718490    2.722770
H    5.719350   -8.125540    4.626770
H    6.895200   -7.594030    2.024800
H    7.939380   -6.757580    3.149040
H    1.104950  -11.302470    0.980450
H   -0.551310  -11.653970    1.493000
H   -0.682950   -9.040700    2.052770
H    0.610460  -13.107660    3.039330
H    1.153560  -12.381290    4.520670
H   -0.621240   -9.278950   -0.822190
H  -16.071710   -4.753880   -4.701320
H  -18.332520   -2.480700   -6.298820
H  -17.310920   -1.053760   -5.992630
H  -16.842270   -2.616820   -8.198100
H  -15.494390   -1.937300   -7.267720
H  -14.999630   -4.311260   -7.217730
H  -16.713360   -4.715610   -6.987430
H  -19.143930    6.533000   -2.204190
H  -20.245710    5.221310   -2.333310
H  -19.601130    3.268210   -3.049730
H  -18.938110   -1.377630   -4.242300
H  -18.676620   -1.823260   -1.311710
H  -17.031120    2.495610   -3.639190
H  -17.144110    2.263120   -1.883700
H  -16.797500    0.000770   -3.890800
H  -16.971800   -0.253050   -2.161880
H  -19.209740    0.879080   -2.212450
H  -19.070580    1.085910   -3.955400
H  -20.913060   -2.267400   -0.380720
H  -22.636790   -5.584390   -2.090460
H  -22.701790   -5.465760   -0.314360
H  -20.508250   -6.425030   -0.562290
H  -20.271540   -5.639060   -2.132850
H  -20.216990   -4.323130    0.614260
H  -18.980940   -4.217270   -0.655830
H  -24.766440   -4.368660   -0.914360
H  -25.698160   -2.031760   -0.542360
H  -25.723550   -1.773340   -2.269190
H  -24.443000   -3.494410   -3.703240
H  -25.614940   -4.522530   -3.219310
H  -27.656990   -2.417850   -3.520850
H  -27.041620   -4.080060    0.415380
H  -29.277790   -5.119500    0.314180
H  -29.890070   -3.465280   -3.602200
H  -30.705940   -4.819040   -1.690970
H   13.984510   13.328440   -2.452600
H   11.083660   16.298110   -3.646750
H   12.615390   18.078250   -2.932950
H   15.511640   15.131610   -1.732460
H   14.645530   18.537390   -2.047590
H  -17.020650    6.063870   -2.134160
H    1.627040   -8.584770    2.820800
H    2.632890   -6.351470    2.104290
H    3.201310   -7.205000    0.653720
H   -2.605350   -9.067580   -1.882080
H   -3.408330  -10.614560   -1.499600
H   -4.665460   -8.744740    0.107590
H   -7.212530   -8.099590   -3.379920
H   -6.989850   -8.269680   -0.612430
H   -6.156940   -6.759720   -1.078310
H   -8.788630   -6.681840   -4.580540
H   -9.988010   -7.644750   -3.672550
H  -10.102920   -4.888090   -2.904130
H  -13.769440   -5.350640   -4.989010
H  -12.127490   -3.820920   -3.307660
H  -11.691440   -3.403990   -4.987770
H   11.907190    7.816160    0.775720
H   13.336510    7.117880    0.036800
H   12.969500    4.979210    1.281380
H   11.488330    5.658800    2.012050
H    7.740560   10.233290   -0.889400
H    7.394600    8.494610   -0.813450
H    7.854890    8.271650   -3.217470
H    7.919370   10.016290   -3.428340
H   11.438110    1.467700    2.492740
H   12.577700    0.167920    2.767430
H   12.304830    0.267290    5.149450
H   10.852240    1.289420    5.042870
