311

C -6.30078400  0.58872000  1.53916000 
H -6.89695300  -0.16466300  2.03404800 
C -6.71827300  1.78022100  1.02577100 
H -7.71816500  2.19008700  1.01755500 
C -5.55338200  2.43057400  0.47300600 
C -5.55752800  3.70287500  -0.15979200 
C -4.42304200  4.36093000  -0.70706500 
C -4.44832400  5.65699700  -1.34342100 
H -5.33182200  6.26595900  -1.47183200 
C -3.17076100  5.93433500  -1.72929600 
H -2.80801700  6.81769300  -2.23536800 
C -2.35283000  4.81012600  -1.33358300 
C -0.96964400  4.70272800  -1.55644600 
C -0.15539400  3.61673800  -1.17541200 
C 1.26142500  3.51554900  -1.43622500 
H 1.85251000  4.25726600  -1.95426300 
C 1.68035600  2.32419200  -0.92000100 
H 2.67389200  1.89954800  -0.94471300 
C 0.52385800  1.69015000  -0.33613100 
C 0.53147600  0.42359700  0.30816300 
C -0.60426700  -0.23439500  0.85218500 
C -4.87709900  0.49887000  1.30420400 
N -4.45405200  1.63829700  0.65283500 
N -3.14744200  3.86989400  -0.71230800 
N -0.57477800  2.48940600  -0.50633600 
C -4.06504600  -0.58285300  1.68538700 
C -2.67612500  -0.68707200  1.46818800 
N -1.88471300  0.25056100  0.84493600 
C -1.85735500  -1.80412400  1.87778700 
H -2.21928200  -2.68450400  2.38955100 
C -0.57705000  -1.52256100  1.50023500 
C 5.40873400  0.73034700  0.61396500 
C 4.10358000  -1.47945700  0.63399100 
C 5.32895200  -0.67781200  0.65895300 
C 4.11163800  -2.88985300  0.70193400 
H 3.16025300  -3.41162600  0.67177800 
C 5.35011600  -3.55853400  0.79031100 
C 6.48825700  -2.75843500  0.80541800 
C 6.56156500  -1.37488400  0.74296300 
C 6.65595200  1.34767600  0.63889000 
H 6.70367400  2.43297600  0.60412900 
C 7.86606900  0.62594000  0.71050700 
H 8.80090400  1.17945900  0.72485100 
C 7.86256000  -0.76844600  0.76832000 
C 9.07157600  -1.64466200  0.85025500 
C 10.39490700  -1.20346200  0.85292200 
H 10.62695800  -0.14335200  0.80030900 
C 11.45884000  -2.12724400  0.90720400 
H 12.47626200  -1.74512500  0.88816000 
C 11.26277200  -3.50282700  0.97505600 
C 8.90135400  -3.06907800  0.92110200 
C 9.94845500  -4.02917800  1.00092800 
C 7.60704200  -3.56745100  0.88977400 
C 9.57002300  -5.44004700  1.05806900 
C 7.20498100  -4.89557500  0.92145800 
C 8.23428500  -5.86352800  1.00876300 
H 8.02131100  -6.92656400  1.05418800 
N 5.79657500  -4.89644200  0.86442200 
C 4.95050900  -6.08359900  0.89027500 
H 3.91552400  -5.72939600  0.95045700 
H 5.14428900  -6.64388700  1.81378400 
Zn -2.51471900  2.06308500  0.07199400 
C -6.80480800  4.37537800  -0.25496500 
C -7.87608400  4.95266200  -0.33842200 
C -9.12195600  5.62372100  -0.43732500 
C -11.60113400  6.96840100  -0.62543000 
C -10.29907200  5.05399700  0.10018500 
C -9.21780900  6.87515400  -1.08419900 
C -10.43795000  7.53312800  -1.17338400 
C -11.51463900  5.71322300  -0.00271100 
H -10.24082100  4.08912000  0.59381500 
H -8.32715900  7.31588300  -1.52044400 
H -10.47698400  8.47637400  -1.71455600 
H -12.42195800  5.27379500  0.39825400 
C -12.94676500  7.61704700  -0.69891600 
O -12.97147200  8.95827200  -0.94186600 
H -12.07522900  9.32522000  -0.87602400 
O -13.98603800  7.01596900  -0.55281900 
C -4.73494000  -1.72608300  2.38910900 
C -5.98873500  -3.85611300  3.70267700 
C -4.78710500  -1.76970200  3.79518100 
C -5.31943500  -2.77577400  1.65544700 
C -5.95040300  -3.84456000  2.30966200 
C -5.41522500  -2.83493800  4.45774900 
H -6.40416600  -4.65267000  1.74918000 
H -5.46264500  -2.86894600  5.53924100 
C -0.29833000  5.84262400  -2.26415200 
C 0.96125000  7.96613000  -3.58275800 
C 0.29424500  6.88954200  -1.53290000 
C -0.25075500  5.88542500  -3.67037500 
C 0.38026400  6.94742900  -4.33544200 
C 0.92780200  7.95521700  -2.18962100 
H 0.42399800  6.98103400  -5.41709300 
H 1.38717200  8.76141800  -1.63096500 
C 5.12964300  -6.99885000  -0.31134200 
C 5.41172400  -8.68531000  -2.49052400 
C 5.08710300  -6.47883800  -1.60893000 
C 5.31381800  -8.36934300  -0.11793000 
C 5.45621100  -9.24264300  -1.20597000 
C 5.22943700  -7.31243900  -2.72336700 
H 4.95190300  -5.41027300  -1.73522900 
H 5.34655900  -8.74998100  0.89794900 
H 5.52830700  -9.34396800  -3.34605300 
C 5.19656300  -6.78019400  -4.16916300 
C 5.66962600  -10.75917300  -1.03333300 
C 4.03947200  -7.45704500  -4.94223400 
H 4.15219600  -8.54581600  -4.97758000 
H 4.00748900  -7.09169700  -5.97602700 
H 3.07342400  -7.23584800  -4.47400600 
C 4.98380100  -5.25522800  -4.22820700 
H 5.78815300  -4.70976600  -3.72217700 
H 4.03107000  -4.95716400  -3.77584000 
H 4.96908200  -4.92615600  -5.27334600 
C 6.53890000  -7.10497400  -4.86757300 
H 6.73269000  -8.18235400  -4.90092400 
H 7.37711300  -6.62993400  -4.34532200 
H 6.52888100  -6.73618300  -5.90052100 
C 4.54151200  -11.52708400  -1.76290700 
H 4.52175500  -11.30431600  -2.83482800 
H 3.56004400  -11.26778000  -1.34957500 
H 4.68264900  -12.60902900  -1.65054700 
C 5.65913800  -11.18925900  0.44614500 
H 6.46395300  -10.71228700  1.01719900 
H 5.80524500  -12.27313600  0.51594300 
H 4.70596800  -10.95266800  0.93286900 
C 7.03657200  -11.15753400  -1.63954800 
H 7.85582300  -10.63236100  -1.13493500 
H 7.09384300  -10.91896900  -2.70677400 
H 7.20441600  -12.23602700  -1.52857300 
H 0.30996700  -2.12279100  1.64497100 
H 4.50318500  1.32786200  0.57304600 
C 2.85384900  -0.81653400  0.52444600 
C 1.78238400  -0.24112300  0.42076500 
H 1.45262600  8.78935000  -4.09478600 
H -6.47820600  -4.68173800  4.21265200 
O -4.19419700  -0.72139300  4.43195700 
O -5.21758100  -2.66612500  0.30106300 
O -0.85067600  4.83968400  -4.30496100 
O 0.19633500  6.78083300  -0.17822600 
C 0.74579600  7.80644800  0.64649800 
H 1.83144200  7.87737700  0.48317200 
H 0.30117500  8.77752800  0.38366700 
C -0.92925700  4.83785200  -5.72916100 
H 0.08168100  4.80963900  -6.16210000 
H -1.41940600  5.75897400  -6.07723100 
C -4.11376700  -0.72256900  5.85613300 
H -3.62103100  -1.64331200  6.20143400 
H -5.12422300  -0.69762400  6.29043900 
C -5.76192100  -3.69283900  -0.52563000 
H -5.31395500  -4.66256000  -0.26337200 
H -6.84749300  -3.76812400  -0.36392200 
C -3.31342700  0.50498500  6.27167900 
H -3.82367600  1.40144700  5.89682300 
H -2.33728300  0.46682500  5.77153400 
C -5.45174600  -3.33313200  -1.97288700 
H -4.36336700  -3.24477900  -2.08354900 
H -5.87083600  -2.34161500  -2.18615400 
C -1.73175100  3.61124400  -6.14334300 
H -1.22368000  2.71437800  -5.76654400 
H -2.70834800  3.65209400  -5.64425600 
C 0.43604900  7.44965200  2.09456500 
H 0.85192000  6.45696200  2.30871100 
H -0.65250100  7.36517500  2.20639900 
H 12.12145100  -4.16504200  0.99611900 
C 10.61800700  -6.49260500  1.16515900 
C 12.58006700  -8.56249400  1.39123900 
C 10.64344800  -7.57665900  0.27098100 
C 11.59072500  -6.47085000  2.17556600 
C 12.54717200  -7.48222500  2.28397600 
C 11.59996100  -8.58152700  0.38368700 
H 9.91250800  -7.61758600  -0.53242200 
H 11.58839400  -5.66282000  2.90186300 
H 13.26985600  -7.41729700  3.09013600 
H 11.58388300  -9.39334100  -0.33870900 
C 13.62407300  -9.69068300  1.47272600 
C 12.90480000  -11.04751700  1.66397200 
H 13.63630000  -11.86358400  1.71403200 
H 12.21911400  -11.26565500  0.83850400 
H 12.32303900  -11.05491100  2.59288400 
C 14.44406600  -9.72728700  0.16078100 
H 15.18997000  -10.53085300  0.19877200 
H 14.97222100  -8.78002200  0.00268200 
H 13.80765700  -9.90414300  -0.71269400 
C 14.60398700  -9.49904000  2.64588300 
H 15.32534600  -10.32388600  2.66220900 
H 14.08712400  -9.49282900  3.61240500 
H 15.17157400  -8.56590500  2.55499700 
C 0.99067300  8.48193300  3.08498300 
H 2.08442300  8.53978800  2.98208900 
H 0.60703000  9.48081300  2.82881100 
C 0.63448800  8.16792700  4.54443400 
H 1.00426500  7.16460900  4.80145600 
H -0.45973500  8.12388900  4.64646500 
C 1.19697000  9.18939300  5.54165000 
H 2.29391600  9.21113700  5.45940600 
H 0.85220900  10.19634700  5.26242900 
C 0.80210500  8.90796200  6.99751900 
H 1.13661700  7.89801300  7.27756500 
H -0.29502800  8.89723800  7.07890000 
C 1.37369800  9.92634300  7.99299500 
H 2.47198600  9.92046800  7.92737800 
H 1.05844800  10.93817500  7.69695900 
C 0.95081800  9.67181600  9.44588900 
H 1.25895900  8.65833800  9.74320600 
H -0.14742200  9.68583300  9.51110700 
C 1.52970700  10.68943500  10.43791400 
H 2.62835400  10.66434500  10.38325700 
H 1.23471300  11.70371800  10.12956300 
C 1.08921100  10.45576500  11.88885100 
H 1.38008300  9.44102000  12.20012100 
H -0.00939400  10.48612200  11.94453500 
C 1.67248000  11.47421700  12.87747700 
H 2.77013600  11.43991600  12.82665700 
H 1.38593000  12.48800900  12.56293300 
C 1.22094600  11.24293200  14.32330800 
H 1.52454400  10.25025000  14.67923200 
H 0.12927100  11.30593400  14.41281800 
H 1.65413200  11.98604200  15.00275400 
C -1.91997300  3.51526000  -7.66296600 
H -0.93735900  3.47431500  -8.15596400 
H -2.40792400  4.43031600  -8.03045800 
C -2.75138900  2.29718900  -8.08808300 
H -2.25992800  1.38001300  -7.73194800 
H -3.72803200  2.33385500  -7.58368800 
C -2.96757600  2.20438400  -9.60424600 
H -1.99146100  2.15764700  -10.10974800 
H -3.44856800  3.12839000  -9.95852500 
C -3.81732400  0.99887400  -10.02821300 
H -3.33415200  0.07317000  -9.68183300 
H -4.78964400  1.04330000  -9.51538700 
C -4.04810700  0.91548900  -11.54297900 
H -3.07655700  0.86218400  -12.05659100 
H -4.52242900  1.84625000  -11.88847000 
C -4.91261000  -0.27911300  -11.96788600 
H -4.43809300  -1.21140500  -11.62706500 
H -5.88256900  -0.22644100  -11.45124800 
C -5.14940500  -0.35425500  -13.48217100 
H -4.17981800  -0.41374100  -13.99885400 
H -5.61653100  0.58212500  -13.82234500 
C -6.02503000  -1.53915500  -13.91065300 
H -5.55944700  -2.47765800  -13.57348300 
H -6.99505400  -1.47987400  -13.39454200 
C -6.26265400  -1.60823100  -15.42516500 
H -5.29364700  -1.66852700  -15.94098200 
H -6.72695800  -0.66990700  -15.76085600 
C -7.14105800  -2.79063500  -15.84740600 
H -6.68527000  -3.74595700  -15.55764300 
H -7.29285300  -2.81076900  -16.93278600 
H -8.12919500  -2.73924400  -15.37356200 
C -3.12385300  0.59915200  7.79124300 
H -2.63413700  -0.31564100  8.15701700 
H -4.10600300  0.63807600  8.28533500 
C -2.29369400  1.81793100  8.21681000 
H -1.31740200  1.78285600  7.71164800 
H -2.78659400  2.73476100  7.86177200 
C -2.07647100  1.90998200  9.73286600 
H -1.59424300  0.98627200  10.08624300 
H -3.05222800  1.95550900  10.23916100 
C -1.22758700  3.11616800  10.15665200 
H -0.25554200  3.07272200  9.64322000 
H -1.71183200  4.04147800  9.81074700 
C -0.99595400  3.19961200  11.67128300 
H -0.52065300  2.26922900  12.01647500 
H -1.96721600  3.25217200  12.18549800 
C -0.13215600  4.39496200  12.09552800 
H 0.83758100  4.34291200  11.57839100 
H -0.60758000  5.32677600  11.75470800 
C 0.10536600  4.47080100  13.60966200 
H 0.57320100  3.53482700  13.95001400 
H -0.86398200  4.52998500  14.12680600 
C 0.98052600  5.65642600  14.03711200 
H 1.95041300  5.59730200  13.52069600 
H 0.51436200  6.59444900  13.69947500 
C 1.21862900  5.72670100  15.55148900 
H 1.68334900  4.78878100  15.88777400 
H 0.24977800  5.78709100  16.06756300 
C 2.09675700  6.90975600  15.97251900 
H 3.08480100  6.85826100  15.49845600 
H 2.24881800  6.93089000  17.05784900 
H 1.64059000  7.86466400  15.68203500 
C -6.00204800  -4.36599700  -2.96509900 
H -5.61534300  -5.36395200  -2.70986700 
H -7.09566000  -4.42756900  -2.86318600 
C -5.64578200  -4.04906100  -4.42389900 
H -4.55160500  -4.00166300  -4.52520400 
H -6.01836200  -3.04652200  -4.67986600 
C -6.20475800  -5.07091000  -5.42269500 
H -5.85761900  -6.07728100  -5.14426800 
H -7.30168000  -5.09559200  -5.34130800 
C -5.80956700  -4.78701700  -6.87800000 
H -4.71238300  -4.77368500  -6.95868700 
H -6.14622400  -3.77756400  -7.15722300 
C -6.37826900  -5.80571500  -7.87480800 
H -6.06137400  -6.81718100  -7.57922800 
H -7.47659900  -5.80198800  -7.81013900 
C -5.95464900  -5.54942300  -9.32717600 
H -4.85630800  -5.56142800  -9.39154000 
H -6.26436900  -4.53632100  -9.62410100 
C -6.53096400  -6.56749700  -10.32023800 
H -6.23467700  -7.58146000  -10.01202700 
H -7.62967700  -6.54416400  -10.26657700 
C -6.08953500  -6.33260200  -11.77068800 
H -4.99080600  -6.36100600  -11.82541000 
H -6.38192400  -5.31829100  -12.08193300 
C -6.67015200  -7.35182500  -12.76008700 
H -6.38226200  -8.36521100  -12.44541900 
H -7.76789100  -7.31933000  -12.71032600 
C -6.21762400  -7.11957900  -14.20544300 
H -5.12573700  -7.18058900  -14.29394000 
H -6.52266700  -6.12741700  -14.56155900 
H -6.64885400  -7.86336800  -14.88538400 
