53 

 C  -0.868778000   9.384668600  -0.459267600
 C   0.064171000   8.463068600  -0.941363200
 C   0.210685100   7.205047600  -0.336241900
 C  -0.614786000   6.876910300   0.759440000
 C  -1.570419500   7.790656800   1.213241900
 C  -1.693667900   9.050282900   0.616597200
 C   0.303522800   4.327584500   0.352908700
 S  -0.371820000   5.349393700   1.648777500
 C   1.652695300   4.054579100  -1.632549800
 C   1.550068400   2.669191700  -1.515734500
 C   0.803521600   2.078718300  -0.481300600
 C   0.174986300   2.941555500   0.439202000
 C   0.680358700   0.604183900  -0.357766500
 C   0.583321300  -0.017940800   0.902676500
 C   0.466639500  -1.402474100   1.020865400
 C   0.457613500  -2.199140800  -0.126344500
 C   0.654531900  -0.223124500  -1.498735300
 N   0.358261700  -3.636872300  -0.003854800
 C   1.500490400  -4.402791800   0.211891600
 C   1.349922800  -5.814565800   0.346996700
 C  -0.924790700  -5.683107300   0.054265300
 C  -0.897305200  -4.222688200  -0.100327100
 C   2.788333600  -3.836994000   0.296213500
 C   3.888858500  -4.658277100   0.515075400
 C   2.488918000  -6.620743800   0.569535000
 N  -3.289988000  -5.438502100  -0.264962000
 C  -2.273515800  -6.345573200  -0.037893000
 C   3.749121700  -6.052599900   0.654945100
 N   0.121250700  -6.415080900   0.263498500
 C   1.040151400   4.908683000  -0.701870800
 N   1.153723400   6.292173100  -0.820817500
 C   0.546934800  -1.608408100  -1.388808700
 O  -2.457173500  -7.536899800   0.072269200
 H   1.691459000   6.612984900  -1.617357900
 N  -1.931700300  -3.468026300  -0.311142200
 C  -3.192592800  -4.032307000  -0.410974400
 O  -4.198097400  -3.389822700  -0.613634000
 H  -4.230392500  -5.820981800  -0.339886000
 H  -0.955250900  10.362843900  -0.938881500
 H   0.695848300   8.718778000  -1.797764100
 H  -2.213652700   7.513584900   2.052646600
 H  -2.433146000   9.761196900   0.992192700
 H   2.231412800   4.488109500  -2.453896300
 H   2.074094900   2.040461000  -2.238755500
 H  -0.441430500   2.527138800   1.240263600
 H   0.619521300   0.587605700   1.810766400
 H   0.391245200  -1.868262100   2.006078600
 H   0.690347100   0.226457000  -2.493288000
 H   2.917522600  -2.760304900   0.189889100
 H   4.881570000  -4.204848900   0.578400000
 H   2.324975800  -7.695692200   0.667898200
 H   4.628112500  -6.677369900   0.827331200
 H   0.513894700  -2.232753500  -2.284164100
